version 3
run Attack50_bloom-0-20250914-01:27:57-67859
attr configname Attack50_bloom
attr datetime 20250914-01:27:57
attr datetimef 20250914-012757
attr experiment Attack50_bloom
attr inifile run_record.ini
attr iterationvars ""
attr iterationvarsd ""
attr iterationvarsf ""
attr measurement ""
attr network ned.LightIoTNetwork
attr processid 67859
attr repetition 0
attr replication #0
attr resultdir results
attr runnumber 0
attr seedset 123
config **.gateway.batteryInit_mJ 10000
config **.gateway.stageOrder "\"FHB\""
config **.result-recording-modes all
config **.scalar-recording true
config **.vector-recording true
config output-scalar-file results/perms_attack50/FHB.sca
config output-vector-file results/perms_attack50/FHB.vec
config record-eventlog false
config extends Attack50_record
config **.gateway.duplicateMethod "\"bloom\""
config network ned.LightIoTNetwork
config LightIoTNetwork.numSensorNodes 50
config **.sensor[*].mode "\"Secure\""
config **.fakeNode.enabled true
config **.fakeNode.validMac true
config **.gateway.securityEnabled true
config **.gateway.hmacWindow 3s
config description "Secure Mode Simulation (includes all scenarios)"
config network ned.LightIoTNetwork
config ned-path .
config sim-time-limit 10s
config record-eventlog true
config cmdenv-express-mode false
config network ned.LightIoTNetwork
config sim-time-limit 10s
config output-scalar-file results/secure_output.sca
config output-vector-file results/secure_output.vec
config network LightIoTNetwork
config sim-time-limit 10s
config output-scalar-file results/nosecure_output.sca
config output-vector-file results/nosecure_output.vec
config network LightIoTNetwork
config sim-time-limit 10s
config output-scalar-file results/attack_output.sca
config output-vector-file results/attack_output.vec
config output-scalar-file results/Attack50_bloom-0.sca
config output-vector-file results/Attack50_bloom-0.vec
config **.scalar-recording true
config **.vector-recording true
config **.statistic-recording true
config **.result-recording-modes all
config rng-class cMersenneTwister
config num-rngs 1
config seed-set 123
config output-scalar-file results/Attack50_bloom-0.sca
config output-vector-file results/Attack50_bloom-0.vec
config **.scalar-recording true
config **.vector-recording true
config **.result-recording-modes all
config **.sensor[*].aesKeyHex "\"00112233445566778899AABBCCDDEEFF\""
config **.gateway.aesKeyHex "\"00112233445566778899AABBCCDDEEFF\""
config **.fakeNode.aesKeyHex "\"00112233445566778899AABBCCDDEEFF\""
config **.sensor[*].sendInterval 0.5s
config **.sensor[*].mode "\"Secure\""
config **.gateway.procDelay 1ms
config **.gateway.hmacWindow 1s
config **.gateway.costForward_mJ 5
config **.gateway.costVerify_mJ 5
config **.gateway.batteryInit_mJ 5000
config **.gateway.securityEnabled true
config **.gateway.checkHmac true
config **.gateway.checkFreshness true
config **.gateway.checkDuplicate true
config **.gateway.duplicateMethod "\"set\""
config **.gateway.bloomBits 16384
config **.gateway.bloomHashes 3
config **.gateway.sbfBits 16384
config **.gateway.sbfHashes 3
config **.gateway.sbfDecay 0.02
config **.fakeNode.enabled false
config **.fakeNode.attackMode 1
config **.fakeNode.replayInterval 2.5s
config **.fakeNode.validMac true
config **.fakeNode.replayId 100000
config **.fakeNode.replayTsUs 500000
config **.fakeNode.dupBurstLen 4
config **.fakeNode.dupBurstGap 200ms
config **.fakeNode.outOfOrderJitter 80ms
config sim-time-limit 10s

vector 0 LightIoTNetwork.gateway q_bloom_calls ETV
vector 1 LightIoTNetwork.gateway q_bloom_inserts ETV
vector 2 LightIoTNetwork.cloud e2eDelay_valid ETV
vector 3 LightIoTNetwork.cloud e2eDelay_debug ETV
0	2	0.559677898185	1
0	5	0.58372648526	1
0	8	0.639950763201	1
0	11	0.675451755989	1
0	14	0.682491732528	1
0	17	0.726851454936	1
0	20	0.744759279769	1
0	23	0.786139338743	1
0	26	0.797780498164	1
0	29	0.824150895933	1
0	32	0.843178014737	1
0	35	0.857728919946	1
0	38	0.892117517302	1
0	41	0.898044250906	1
0	44	0.901017554104	1
0	47	0.910924367839	1
0	50	0.917209947016	1
0	53	0.923106460599	1
0	56	0.927863489604	1
0	58	0.928470924962	1
0	62	0.93857224728	1
0	65	0.940257177455	1
0	68	0.980931907427	1
0	71	0.991118932609	1
0	73	0.992084773025	1
0	77	1.031551370164	1
0	79	1.031827588566	1
0	83	1.051314765122	1
0	86	1.069905351056	1
0	89	1.075150029151	1
0	92	1.079694297398	1
0	95	1.093902397901	1
0	98	1.111023514532	1
0	101	1.127317003906	1
0	103	1.127330906409	1
0	107	1.131792020286	1
0	110	1.134400961921	1
0	113	1.148278079531	1
0	116	1.155943019874	1
0	119	1.184829734266	1
0	122	1.190884851385	1
0	125	1.194755175151	1
0	128	1.196469187271	1
0	131	1.206222858862	1
0	134	1.212330177892	1
0	136	1.212955321418	1
0	140	1.219150308752	1
0	142	1.21946897055	1
0	146	1.222443384118	1
0	149	1.22445532144	1
0	152	1.229049708461	1
0	155	1.237995401956	1
0	158	1.240296386881	1
0	161	1.280027760426	1
0	164	1.283361389581	1
0	167	1.29355880823	1
0	170	1.299236950744	1
0	173	1.324380093185	1
0	176	1.344915712741	1
0	179	1.349431794137	1
0	182	1.351099037193	1
0	185	1.368408205965	1
0	188	1.370878458419	1
0	191	1.382618171396	1
0	194	1.38557213787	1
0	197	1.391130527156	1
0	200	1.409697046689	1
0	202	1.410292877722	1
0	206	1.415689489874	1
0	209	1.432892307848	1
0	212	1.477558817272	1
0	215	1.480764200445	1
0	218	1.505969777867	1
0	221	1.511425096961	1
0	224	1.530457849079	1
0	227	1.533003926184	1
0	230	1.551498432504	1
0	233	1.555464237556	1
0	236	1.566332156467	1
0	239	1.575967372302	1
0	242	1.586537367199	1
0	245	1.587545324349	1
0	248	1.591278459831	1
0	251	1.609045552043	1
0	254	1.623274641438	1
0	257	1.627061785454	1
0	260	1.651777746272	1
0	262	1.652727252781	1
0	266	1.659875270887	1
0	269	1.684908994892	1
0	271	1.685613771039	1
0	274	1.686518188077	1
0	278	1.693058601464	1
0	281	1.69601836591	1
0	284	1.697612887574	1
0	287	1.712836374994	1
0	290	1.714903833601	1
0	293	1.72713892092	1
0	296	1.730758423032	1
0	299	1.747597683966	1
0	302	1.754778837366	1
0	305	1.761631683051	1
0	308	1.770069227717	1
0	310	1.770629481831	1
0	314	1.79033377308	1
0	317	1.7925787749	1
0	320	1.795891447854	1
0	323	1.798065608833	1
0	326	1.808656476765	1
0	329	1.829843873345	1
0	332	1.835178635712	1
0	335	1.86011042695	1
0	338	1.886477428977	1
0	341	1.88980565907	1
0	344	1.900748247397	1
0	347	1.911335111712	1
0	349	1.911364281224	1
0	353	1.922509066272	1
0	356	1.928676211392	1
0	359	1.949823686154	1
0	362	1.954386947653	1
0	365	1.989357855147	1
0	368	2.00750931548	1
0	371	2.023915447039	1
0	374	2.033869422693	1
0	376	2.034286871436	1
0	380	2.039675057354	1
0	383	2.050472831447	1
0	386	2.054504633695	1
0	389	2.068034011545	1
0	392	2.083412189944	1
0	395	2.089698481327	1
0	398	2.091308269743	1
0	401	2.096484081423	1
0	404	2.113913607969	1
0	407	2.130389369676	1
0	409	2.131105081294	1
0	413	2.144480246561	1
0	416	2.151209366577	1
0	419	2.159068595548	1
0	421	2.159972949001	1
0	425	2.178751841583	1
0	428	2.187701457925	1
0	431	2.2087432625	1
0	434	2.225050870911	1
0	437	2.22846317885	1
0	440	2.235178010142	1
0	442	2.235767187993	1
0	445	2.236525446548	1
0	449	2.239518567593	1
0	452	2.257040872052	1
0	454	2.257885826193	1
0	458	2.264332825598	1
0	461	2.267310202099	1
0	464	2.268413093151	1
0	467	2.269510706678	1
0	470	2.270789659675	1
0	473	2.311720515905	1
0	476	2.317618561815	1
0	479	2.322275117412	1
0	483	2.336344107334	1
0	485	2.338412535349	1
0	488	2.372585848486	1
0	491	2.379307455825	1
0	494	2.395243984554	1
0	497	2.397674687346	1
0	500	2.400230169296	1
0	503	2.427454368397	1
0	508	2.46417349251	1
0	510	2.465022315295	1
0	514	2.475097612174	1
0	516	2.475526127708	1
0	520	2.478274593712	1
0	523	2.48399068599	1
0	526	2.496803756548	1
0	529	2.506999571296	1
0	532	2.514763678773	1
0	536	2.527692528559	1
0	539	2.540291399509	1
0	542	2.541721733892	1
0	545	2.559420843865	1
0	548	2.582075567822	1
0	551	2.586869883071	1
0	555	2.588529894338	1
0	557	2.58908409581	1
0	561	2.605512056848	1
0	564	2.627715859841	1
0	567	2.639234330086	1
0	570	2.6438645866	1
0	573	2.653797938651	1
0	576	2.656644151291	1
0	579	2.666960218572	1
0	582	2.678238775302	1
0	585	2.697478062707	1
0	588	2.698630891391	1
0	591	2.702548768814	1
0	594	2.709983245213	1
0	597	2.720112789469	1
0	600	2.721964536444	1
0	603	2.727901050565	1
0	606	2.732600201784	1
0	609	2.740831383294	1
0	612	2.742437843467	1
0	615	2.751327637234	1
0	618	2.769537198032	1
0	621	2.773875673347	1
0	623	2.774548280984	1
0	627	2.793918576395	1
0	630	2.809270160692	1
0	633	2.813642404298	1
0	636	2.838431551168	1
0	639	2.86779123675	1
0	642	2.871789356065	1
0	645	2.878534585913	1
0	647	2.879353477084	1
0	651	2.912880835845	1
0	653	2.913036529347	1
0	657	2.931142836832	1
0	659	2.93213049823	1
0	663	2.934168409743	1
0	666	2.966896857762	1
0	668	2.967857770248	1
0	672	2.994649656677	1
0	675	3.001030708035	1
0	678	3.00843739165	1
0	681	3.012236578833	1
0	684	3.01687962187	1
0	687	3.032344374013	1
0	690	3.035547675263	1
0	693	3.04034074368	1
0	696	3.043875039718	1
0	699	3.048354601651	1
0	702	3.104618845856	1
0	705	3.109997916385	1
0	708	3.112639998481	1
0	711	3.128858144976	1
0	714	3.133046880015	1
0	717	3.137364435825	1
0	720	3.14604621448	1
0	723	3.147973990906	1
0	726	3.151549491101	1
0	729	3.156470871205	1
0	732	3.168961233995	1
0	735	3.17821854339	1
0	738	3.195866995421	1
0	741	3.216331343981	1
0	744	3.227642026288	1
0	747	3.234336955077	1
0	749	3.234362069542	1
0	753	3.237669200288	1
0	756	3.240764642391	1
0	759	3.243483664188	1
0	762	3.250911857281	1
0	765	3.260025478318	1
0	768	3.271528252004	1
0	771	3.27605900534	1
0	774	3.28281508342	1
0	777	3.296982976584	1
0	780	3.311860183487	1
0	783	3.323712260881	1
0	786	3.356730848877	1
0	789	3.36958268329	1
0	792	3.370817414904	1
0	795	3.382665827405	1
0	798	3.387179383333	1
0	801	3.404377682949	1
0	803	3.404622695665	1
0	807	3.411973990407	1
0	810	3.423977564624	1
0	813	3.426886746544	1
0	816	3.462921418993	1
0	819	3.469634760241	1
0	822	3.471569249943	1
0	825	3.478378169308	1
0	828	3.50559132269	1
0	830	3.505807065685	1
0	834	3.512030451069	1
0	837	3.51805780183	1
0	840	3.535781470315	1
0	843	3.555254974962	1
0	846	3.560227146767	1
0	849	3.567281166907	1
0	852	3.569396081427	1
0	855	3.583099168074	1
0	858	3.602831894509	1
0	861	3.605739116203	1
0	864	3.630434065615	1
0	867	3.643229005207	1
0	870	3.64454552664	1
0	873	3.646989140938	1
0	876	3.654210743819	1
0	879	3.661550650839	1
0	882	3.677340610605	1
0	885	3.682925132173	1
0	888	3.684018206037	1
0	891	3.712142877979	1
0	894	3.716322861985	1
0	897	3.724130638898	1
0	900	3.737198222941	1
0	903	3.751832455351	1
0	906	3.758380469494	1
0	909	3.75938332819	1
0	912	3.762046770285	1
0	914	3.762436748808	1
0	918	3.765465983657	1
0	921	3.776551625087	1
0	924	3.800173219782	1
0	927	3.810677631852	1
0	930	3.813470221706	1
0	933	3.855288926047	1
0	936	3.856967813336	1
0	939	3.859425675264	1
0	942	3.861152897007	1
0	945	3.862497940077	1
0	948	3.876698614937	1
0	951	3.889213809999	1
0	954	3.898199121421	1
0	957	3.928125175973	1
0	960	3.933450946631	1
0	962	3.934446698799	1
0	966	3.938483599923	1
0	969	3.939512539793	1
0	972	3.986645277822	1
0	975	4.001764440163	1
0	978	4.002932972299	1
0	981	4.009703949281	1
0	983	4.009776499331	1
0	987	4.01399593416	1
0	990	4.015889146411	1
0	993	4.035099604446	1
0	996	4.037291436271	1
0	999	4.086693644315	1
0	1002	4.090505550872	1
0	1005	4.092352866917	1
0	1008	4.098012633064	1
0	1011	4.10114390119	1
0	1014	4.124498362979	1
0	1016	4.124797916085	1
0	1020	4.130903515243	1
0	1023	4.162929838081	1
0	1026	4.174285687414	1
0	1028	4.175005998392	1
0	1032	4.182308647921	1
0	1034	4.182928048632	1
0	1038	4.188983980543	1
0	1041	4.19370106177	1
0	1044	4.215674012598	1
0	1047	4.220203618565	1
0	1050	4.223912297841	1
0	1053	4.226465367129	1
0	1056	4.235737905605	1
0	1059	4.249321199675	1
0	1062	4.254867434595	1
0	1065	4.272901986936	1
0	1068	4.278236832819	1
0	1071	4.282773463336	1
0	1074	4.293483788171	1
0	1077	4.302376220074	1
0	1080	4.312903228425	1
0	1083	4.325428876188	1
0	1086	4.348225105484	1
0	1089	4.356541860244	1
0	1092	4.359296697145	1
0	1095	4.378867813665	1
0	1098	4.390590110375	1
0	1101	4.418911480834	1
0	1104	4.420007630693	1
0	1107	4.432326943916	1
0	1110	4.434752104292	1
0	1113	4.439605971518	1
0	1116	4.449003538489	1
0	1119	4.4803135223	1
0	1122	4.482705754529	1
0	1125	4.488597694248	1
0	1128	4.492287218081	1
0	1130	4.493146409187	1
0	1134	4.495324522933	1
0	1137	4.509981986251	1
0	1140	4.522998188948	1
0	1143	4.535771690354	1
0	1146	4.54528483937	1
0	1149	4.556365258853	1
0	1152	4.578017709217	1
0	1155	4.60353203884	1
0	1158	4.607251790516	1
0	1161	4.614733936847	1
0	1164	4.621150621772	1
0	1167	4.623789204145	1
0	1170	4.645103483972	1
0	1173	4.648269513296	1
0	1176	4.663433622942	1
0	1179	4.672297298489	1
0	1182	4.674725000841	1
0	1185	4.676881063077	1
0	1188	4.679724811273	1
0	1191	4.68740790349	1
0	1194	4.69796465477	1
0	1197	4.702519084955	1
0	1200	4.735553745111	1
0	1203	4.741801853826	1
0	1206	4.744539646828	1
0	1209	4.762639746258	1
0	1212	4.779368571704	1
0	1214	4.779984809994	1
0	1218	4.790150874179	1
0	1221	4.7932996382	1
0	1224	4.798929832248	1
0	1226	4.799841720961	1
0	1231	4.833777526603	1
0	1234	4.835533907451	1
0	1237	4.84541228381	1
0	1240	4.847525378573	1
0	1244	4.872658646922	1
0	1246	4.872940936662	1
0	1250	4.888964348006	1
0	1254	4.90723273179	1
0	1257	4.915275014867	1
0	1261	4.932192740984	1
0	1264	4.933414731011	1
0	1266	4.934198603173	1
0	1270	4.947668717452	1
0	1272	4.948141410994	1
0	1276	4.978144870465	1
0	1279	4.979754617204	1
0	1282	4.991249036742	1
0	1285	5.000658783548	1
0	1288	5.009132239177	1
0	1291	5.017903580189	1
0	1294	5.025984899561	1
0	1297	5.033293207991	1
0	1302	5.060806157789	1
0	1305	5.072222414032	1
0	1308	5.082066269661	1
0	1311	5.090918558488	1
0	1314	5.102783688343	1
0	1317	5.106463043461	1
0	1320	5.110814408097	1
0	1323	5.121929494478	1
0	1326	5.130667885068	1
0	1329	5.144723113113	1
0	1332	5.14653753764	1
0	1335	5.172692654887	1
0	1338	5.182707332656	1
0	1341	5.19312392003	1
0	1344	5.198884357209	1
0	1347	5.210487081018	1
0	1350	5.213980531436	1
0	1353	5.217068047054	1
0	1356	5.218720809579	1
0	1359	5.234718764294	1
0	1362	5.242023487132	1
0	1365	5.243690710655	1
0	1367	5.244006641001	1
0	1371	5.253412919888	1
0	1374	5.259394684994	1
0	1377	5.261060781056	1
0	1380	5.267468202509	1
0	1383	5.299734573346	1
0	1386	5.311382776219	1
0	1389	5.326472948771	1
0	1392	5.334777317615	1
0	1395	5.352853330598	1
0	1398	5.356937953458	1
0	1401	5.373275355226	1
0	1404	5.398223258205	1
0	1407	5.409862094606	1
0	1410	5.419225496729	1
0	1413	5.435013293567	1
0	1416	5.437022567586	1
0	1419	5.438489739946	1
0	1422	5.439581313938	1
0	1425	5.446045666793	1
0	1428	5.475625853309	1
0	1431	5.476635814923	1
0	1434	5.485688715755	1
0	1437	5.49411740247	1
0	1440	5.496650791984	1
0	1443	5.501474361075	1
0	1446	5.50821509892	1
0	1449	5.540081890183	1
0	1452	5.556997033604	1
0	1455	5.574323500904	1
0	1458	5.5818964154	1
0	1461	5.586966749792	1
0	1463	5.587817292031	1
0	1467	5.588851975302	1
0	1470	5.617362367129	1
0	1473	5.628366716206	1
0	1476	5.640706681973	1
0	1479	5.647509643715	1
0	1482	5.654378379694	1
0	1485	5.660552518071	1
0	1488	5.677044102921	1
0	1491	5.687821504892	1
0	1494	5.690998446057	1
0	1497	5.703557936452	1
0	1500	5.705032509379	1
0	1503	5.719992437958	1
0	1505	5.720444484497	1
0	1509	5.742920296989	1
0	1512	5.7567985415	1
0	1515	5.759081677512	1
0	1518	5.764939953131	1
0	1521	5.771774466965	1
0	1524	5.781598439976	1
0	1527	5.788073358358	1
0	1529	5.788772917817	1
0	1533	5.79594067007	1
0	1536	5.805722871028	1
0	1539	5.813682816691	1
0	1542	5.83498442783	1
0	1545	5.840884879581	1
0	1547	5.841057699197	1
0	1551	5.873119468778	1
0	1554	5.879661008692	1
0	1557	5.892871736596	1
0	1560	5.910982505324	1
0	1563	5.920746515272	1
0	1566	5.924451786139	1
0	1569	5.936170439863	1
0	1572	5.942526822443	1
0	1575	5.947526584379	1
0	1578	5.95893669387	1
0	1581	5.976711805352	1
0	1584	5.984202397195	1
0	1587	5.991575588682	1
0	1590	5.9944384231	1
0	1593	6.007090165814	1
0	1596	6.021659325877	1
0	1599	6.035120512172	1
0	1602	6.038411576253	1
0	1605	6.06444209323	1
0	1607	6.064544896665	1
0	1611	6.068124091486	1
0	1614	6.095178392646	1
0	1617	6.103934280039	1
0	1620	6.11351426267	1
0	1623	6.120579963549	1
0	1626	6.137095099293	1
0	1629	6.144095280185	1
0	1631	6.144969112286	1
0	1635	6.165446566047	1
0	1638	6.170313692722	1
0	1641	6.17306414505	1
0	1644	6.181432239291	1
0	1647	6.183231066261	1
0	1650	6.186787414014	1
0	1653	6.209348812582	1
0	1656	6.216551815975	1
0	1659	6.218237559218	1
0	1662	6.244294243446	1
0	1665	6.260312393821	1
0	1668	6.274245934074	1
0	1671	6.27672840932	1
0	1674	6.285773381241	1
0	1677	6.295557887248	1
0	1680	6.316489163645	1
0	1682	6.317164160754	1
0	1684	6.317420631927	1
0	1689	6.333830025002	1
0	1692	6.342903595023	1
0	1695	6.356084297341	1
0	1698	6.388162312959	1
0	1701	6.399363295572	1
0	1704	6.406045751809	1
0	1707	6.416829302115	1
0	1710	6.42514537559	1
0	1713	6.431998670193	1
0	1716	6.435508155961	1
0	1719	6.46406365747	1
0	1721	6.465049919416	1
0	1725	6.469798164372	1
0	1727	6.470302759925	1
0	1731	6.483593637471	1
0	1734	6.486537091363	1
0	1736	6.487535280502	1
0	1740	6.496224584851	1
0	1742	6.496649769997	1
0	1746	6.52493934983	1
0	1749	6.537414788758	1
0	1752	6.56854798412	1
0	1755	6.57590656355	1
0	1758	6.578217188969	1
0	1761	6.582414477713	1
0	1764	6.58491852933	1
0	1767	6.596608360367	1
0	1770	6.597816516785	1
0	1773	6.621814771603	1
0	1776	6.629783876566	1
0	1779	6.6311074225	1
0	1782	6.632205990654	1
0	1785	6.645269641558	1
0	1788	6.646743788967	1
0	1791	6.654471290809	1
0	1794	6.669391663211	1
0	1797	6.689101657388	1
0	1799	6.689865740156	1
0	1803	6.692432129942	1
0	1806	6.695597303704	1
0	1809	6.700058922847	1
0	1812	6.760603566027	1
0	1815	6.762218709244	1
0	1818	6.77566471994	1
0	1821	6.781806696975	1
0	1824	6.789769374439	1
0	1826	6.789966967842	1
0	1830	6.817083567871	1
0	1833	6.823299484722	1
0	1836	6.829992310051	1
0	1839	6.834226049506	1
0	1842	6.850118271914	1
0	1845	6.874002800301	1
0	1847	6.874581137928	1
0	1851	6.880581158075	1
0	1854	6.885870291712	1
0	1857	6.904257492884	1
0	1860	6.917008060986	1
0	1862	6.917518158815	1
0	1866	6.930817048739	1
0	1869	6.933684093433	1
0	1872	6.968945681047	1
0	1875	6.971206219307	1
0	1878	6.979052135278	1
0	1881	6.98058951723	1
0	1884	7.00182806051	1
0	1887	7.008284985903	1
0	1890	7.018901205413	1
0	1893	7.024995491515	1
0	1896	7.026455140673	1
0	1899	7.031362328235	1
0	1902	7.050496608485	1
0	1905	7.058977218508	1
0	1908	7.067653086293	1
0	1911	7.076306092694	1
0	1914	7.08124684957	1
0	1917	7.084992989618	1
0	1920	7.119540599384	1
0	1923	7.121313451183	1
0	1926	7.122883879578	1
0	1929	7.127664028806	1
0	1932	7.133983436624	1
0	1935	7.142526851804	1
0	1938	7.151777543267	1
0	1941	7.153979286202	1
0	1944	7.158525072689	1
0	1947	7.183311308267	1
0	1950	7.189432452852	1
0	1953	7.205106968923	1
0	1956	7.236674742261	1
0	1958	7.237612227	1
0	1962	7.263567644009	1
0	1965	7.278693865986	1
0	1968	7.283990776353	1
0	1971	7.297916691332	1
0	1974	7.300522281485	1
0	1977	7.313546697842	1
0	1980	7.316087319167	1
0	1983	7.319302280736	1
0	1987	7.335074894573	1
0	1990	7.348278898491	1
0	1994	7.357024560914	1
0	1997	7.363568561314	1
0	2000	7.370622368927	1
0	2004	7.39323045765	1
0	2006	7.394083270824	1
0	2010	7.403937178595	1
0	2013	7.405039029753	1
0	2016	7.407744639739	1
0	2019	7.411350000208	1
0	2022	7.415141700046	1
0	2025	7.467798934643	1
0	2029	7.48670779206	1
0	2032	7.488054366084	1
0	2035	7.495396632772	1
0	2038	7.503839361947	1
0	2041	7.512712516961	1
0	2044	7.519853243301	1
0	2047	7.521108121379	1
0	2051	7.529219424211	1
0	2054	7.532365012123	1
0	2057	7.537213499053	1
0	2061	7.55128703944	1
0	2064	7.563956838894	1
0	2066	7.564229439968	1
0	2070	7.568160080213	1
0	2073	7.576582644763	1
0	2076	7.639849535818	1
0	2079	7.648444243729	1
0	2082	7.650779407447	1
0	2084	7.651459166291	1
0	2088	7.654169022455	1
0	2090	7.65494575936	1
0	2092	7.655114261222	1
0	2097	7.657768209255	1
0	2100	7.663935756567	1
0	2103	7.697712065768	1
0	2105	7.698414586275	1
0	2109	7.716877838782	1
0	2112	7.727094896651	1
0	2115	7.738671466521	1
0	2118	7.743672979321	1
0	2121	7.74851714978	1
0	2124	7.759740891423	1
0	2127	7.781347764843	1
0	2130	7.803147388228	1
0	2133	7.817743638367	1
0	2136	7.826380538592	1
0	2138	7.827307513309	1
0	2142	7.835119105828	1
0	2145	7.852355225661	1
0	2148	7.857110458613	1
0	2151	7.862272601713	1
0	2154	7.865969484138	1
0	2157	7.871032817172	1
0	2159	7.871118654499	1
0	2163	7.898625341385	1
0	2166	7.913099655274	1
0	2168	7.913718429301	1
0	2172	7.924243433355	1
0	2175	7.928113220586	1
0	2178	7.96227820518	1
0	2181	7.976467064278	1
0	2184	7.991006669962	1
0	2186	7.991357702248	1
0	2190	7.998368462828	1
0	2193	8.005633650255	1
0	2196	8.010324560362	1
0	2199	8.014795103274	1
0	2202	8.02917944314	1
0	2205	8.046622776775	1
0	2208	8.053925728774	1
0	2211	8.06265857632	1
0	2214	8.06453726343	1
0	2217	8.067907980154	1
0	2220	8.075956802723	1
0	2223	8.092006341904	1
0	2226	8.108099519019	1
0	2229	8.127566681267	1
0	2232	8.131516031245	1
0	2235	8.142833284218	1
0	2238	8.147952651232	1
0	2241	8.166327959346	1
0	2244	8.180501665477	1
0	2246	8.180686457174	1
0	2248	8.180970092746	1
0	2253	8.182922425728	1
0	2256	8.191059807548	1
0	2259	8.232241957449	1
0	2262	8.249905043957	1
0	2265	8.252889496902	1
0	2268	8.254452973906	1
0	2271	8.262247550929	1
0	2274	8.275804932974	1
0	2277	8.288174049812	1
0	2280	8.289203892324	1
0	2283	8.300185199548	1
0	2286	8.310056158086	1
0	2289	8.321366240062	1
0	2291	8.321635605836	1
0	2295	8.324376388313	1
0	2298	8.326284954836	1
0	2301	8.328246628005	1
0	2304	8.332821600188	1
0	2307	8.357366115368	1
0	2310	8.379776114713	1
0	2313	8.38325161291	1
0	2316	8.398397901119	1
0	2319	8.417189395521	1
0	2322	8.425188321411	1
0	2324	8.425946713353	1
0	2328	8.468375329136	1
0	2331	8.472549774941	1
0	2334	8.475586112099	1
0	2337	8.478170252872	1
0	2340	8.485860366608	1
0	2342	8.485933099594	1
0	2346	8.491676022229	1
0	2349	8.52577044312	1
0	2352	8.534462120339	1
0	2354	8.534563195217	1
0	2358	8.538742782338	1
0	2361	8.546518445668	1
0	2364	8.573755274829	1
0	2366	8.574608649406	1
0	2370	8.58763340225	1
0	2373	8.601942350878	1
0	2375	8.602483230876	1
0	2379	8.605546883052	1
0	2382	8.624007039565	1
0	2385	8.63726423476	1
0	2387	8.637744560604	1
0	2391	8.646325160958	1
0	2394	8.647763094562	1
0	2397	8.678285200078	1
0	2400	8.686122448672	1
0	2403	8.693472598656	1
0	2406	8.721657923491	1
0	2409	8.741806384408	1
0	2412	8.746786060812	1
0	2415	8.751278401165	1
0	2418	8.752953463351	1
0	2421	8.754253518372	1
0	2424	8.756669657164	1
0	2427	8.782276100503	1
0	2430	8.783923950582	1
0	2433	8.799610596779	1
0	2436	8.804641601538	1
0	2439	8.814432353621	1
0	2442	8.81821918208	1
0	2445	8.840012625419	1
0	2448	8.844253600087	1
0	2451	8.846453486335	1
0	2454	8.855363057739	1
0	2457	8.86330818441	1
0	2460	8.86908834218	1
0	2463	8.887802549475	1
0	2466	8.892453357039	1
0	2469	8.894449316917	1
0	2472	8.922123601288	1
0	2475	8.925409570337	1
0	2478	8.95866527718	1
0	2480	8.9587315019	1
0	2484	8.966354571447	1
0	2487	8.986873272108	1
0	2490	8.990098272497	1
0	2493	9.003251709067	1
0	2496	9.0054605942	1
0	2499	9.010917437983	1
0	2502	9.014505588008	1
0	2505	9.056906043668	1
0	2508	9.076952788631	1
0	2511	9.078115054524	1
0	2514	9.079588358198	1
0	2517	9.082917118749	1
0	2520	9.091770980693	1
0	2523	9.118247762742	1
0	2526	9.128130247911	1
0	2529	9.139212028799	1
0	2532	9.149152174941	1
0	2535	9.154281993258	1
0	2538	9.155298007558	1
0	2541	9.159003227972	1
0	2544	9.161917471326	1
0	2547	9.168850520136	1
0	2549	9.169207409676	1
0	2553	9.17741824542	1
0	2556	9.200071652116	1
0	2559	9.201328144851	1
0	2562	9.220254741422	1
0	2565	9.227639435254	1
0	2568	9.231401503761	1
0	2571	9.235368306794	1
0	2574	9.256957045292	1
0	2577	9.26809920019	1
0	2580	9.269964852578	1
0	2583	9.272140008142	1
0	2586	9.276276366483	1
0	2589	9.290632146225	1
0	2592	9.300300614047	1
0	2595	9.341529539252	1
0	2598	9.357477922996	1
0	2601	9.358974339579	1
0	2603	9.359814194545	1
0	2607	9.372516460365	1
0	2610	9.380154354591	1
0	2613	9.381648495046	1
0	2616	9.389773322943	1
0	2619	9.407798151741	1
0	2622	9.426226048382	1
0	2625	9.436779200054	1
0	2628	9.438930887845	1
0	2631	9.449732524506	1
0	2634	9.462241041288	1
0	2637	9.466000201158	1
0	2640	9.467497695004	1
0	2643	9.512021698525	1
0	2646	9.534596222685	1
0	2649	9.540179456189	1
0	2651	9.540863541795	1
0	2655	9.543825938065	1
0	2658	9.545061410498	1
0	2661	9.547365465177	1
0	2664	9.566835776251	1
0	2667	9.577590469155	1
0	2670	9.580463809405	1
0	2673	9.619920868845	1
0	2676	9.634249581909	1
0	2679	9.640614227345	1
0	2682	9.645308564744	1
0	2685	9.651931304716	1
0	2687	9.652644127956	1
0	2691	9.654141221753	1
0	2694	9.656339196347	1
0	2697	9.66841138478	1
0	2700	9.672514903754	1
0	2702	9.672958639963	1
0	2706	9.67517488203	1
0	2709	9.680054275877	1
0	2712	9.697313504154	1
0	2715	9.713170576537	1
0	2718	9.735927013912	1
0	2721	9.756306875752	1
0	2724	9.759474692562	1
0	2727	9.768873035233	1
0	2730	9.773217093014	1
0	2733	9.77814306086	1
0	2736	9.797963108147	1
0	2739	9.810554388515	1
0	2741	9.811267062766	1
0	2746	9.84581558162	1
0	2750	9.854843091359	1
0	2752	9.854946485043	1
0	2756	9.857926795284	1
0	2759	9.88000802805	1
0	2762	9.887731848189	1
0	2765	9.889609557276	1
0	2769	9.894866023328	1
0	2772	9.896678721277	1
0	2775	9.900240549819	1
0	2778	9.916288521607	1
0	2781	9.924136475963	1
0	2784	9.93525617225	1
0	2787	9.965994394477	1
0	2790	9.977268429078	1
0	2793	9.9859000396	1
1	2	0.559677898185	1
1	5	0.58372648526	1
1	8	0.639950763201	1
1	11	0.675451755989	1
1	14	0.682491732528	1
1	17	0.726851454936	1
1	20	0.744759279769	1
1	23	0.786139338743	1
1	26	0.797780498164	1
1	29	0.824150895933	1
1	32	0.843178014737	1
1	35	0.857728919946	1
1	38	0.892117517302	1
1	41	0.898044250906	1
1	44	0.901017554104	1
1	47	0.910924367839	1
1	50	0.917209947016	1
1	53	0.923106460599	1
1	56	0.927863489604	1
1	58	0.928470924962	1
1	62	0.93857224728	1
1	65	0.940257177455	1
1	68	0.980931907427	1
1	71	0.991118932609	1
1	73	0.992084773025	1
1	77	1.031551370164	1
1	79	1.031827588566	1
1	83	1.051314765122	1
1	86	1.069905351056	1
1	89	1.075150029151	1
1	92	1.079694297398	1
1	95	1.093902397901	1
1	98	1.111023514532	1
1	101	1.127317003906	1
1	103	1.127330906409	1
1	107	1.131792020286	1
1	110	1.134400961921	1
1	113	1.148278079531	1
1	116	1.155943019874	1
1	119	1.184829734266	1
1	122	1.190884851385	1
1	125	1.194755175151	1
1	128	1.196469187271	1
1	131	1.206222858862	1
1	134	1.212330177892	1
1	136	1.212955321418	1
1	140	1.219150308752	1
1	142	1.21946897055	1
1	146	1.222443384118	1
1	149	1.22445532144	1
1	152	1.229049708461	1
1	155	1.237995401956	1
1	158	1.240296386881	1
1	161	1.280027760426	1
1	164	1.283361389581	1
1	167	1.29355880823	1
1	170	1.299236950744	1
1	173	1.324380093185	1
1	176	1.344915712741	1
1	179	1.349431794137	1
1	182	1.351099037193	1
1	185	1.368408205965	1
1	188	1.370878458419	1
1	191	1.382618171396	1
1	194	1.38557213787	1
1	197	1.391130527156	1
1	200	1.409697046689	1
1	202	1.410292877722	1
1	206	1.415689489874	1
1	209	1.432892307848	1
1	212	1.477558817272	1
1	215	1.480764200445	1
1	218	1.505969777867	1
1	221	1.511425096961	1
1	224	1.530457849079	1
1	227	1.533003926184	1
1	230	1.551498432504	1
1	233	1.555464237556	1
1	236	1.566332156467	1
1	239	1.575967372302	1
1	242	1.586537367199	1
1	245	1.587545324349	1
1	248	1.591278459831	1
1	251	1.609045552043	1
1	254	1.623274641438	1
1	257	1.627061785454	1
1	260	1.651777746272	1
1	262	1.652727252781	1
1	266	1.659875270887	1
1	269	1.684908994892	1
1	271	1.685613771039	1
1	274	1.686518188077	1
1	278	1.693058601464	1
1	281	1.69601836591	1
1	284	1.697612887574	1
1	287	1.712836374994	1
1	290	1.714903833601	1
1	293	1.72713892092	1
1	296	1.730758423032	1
1	299	1.747597683966	1
1	302	1.754778837366	1
1	305	1.761631683051	1
1	308	1.770069227717	1
1	310	1.770629481831	1
1	314	1.79033377308	1
1	317	1.7925787749	1
1	320	1.795891447854	1
1	323	1.798065608833	1
1	326	1.808656476765	1
1	329	1.829843873345	1
1	332	1.835178635712	1
1	335	1.86011042695	1
1	338	1.886477428977	1
1	341	1.88980565907	1
1	344	1.900748247397	1
1	347	1.911335111712	1
1	349	1.911364281224	1
1	353	1.922509066272	1
1	356	1.928676211392	1
1	359	1.949823686154	1
1	362	1.954386947653	1
1	365	1.989357855147	1
1	368	2.00750931548	1
1	371	2.023915447039	1
1	374	2.033869422693	1
1	376	2.034286871436	1
1	380	2.039675057354	1
1	383	2.050472831447	1
1	386	2.054504633695	1
1	389	2.068034011545	1
1	392	2.083412189944	1
1	395	2.089698481327	1
1	398	2.091308269743	1
1	401	2.096484081423	1
1	404	2.113913607969	1
1	407	2.130389369676	1
1	409	2.131105081294	1
1	413	2.144480246561	1
1	416	2.151209366577	1
1	419	2.159068595548	1
1	421	2.159972949001	1
1	425	2.178751841583	1
1	428	2.187701457925	1
1	431	2.2087432625	1
1	434	2.225050870911	1
1	437	2.22846317885	1
1	440	2.235178010142	1
1	442	2.235767187993	1
1	445	2.236525446548	1
1	449	2.239518567593	1
1	452	2.257040872052	1
1	454	2.257885826193	1
1	458	2.264332825598	1
1	461	2.267310202099	1
1	464	2.268413093151	1
1	467	2.269510706678	1
1	470	2.270789659675	1
1	473	2.311720515905	1
1	476	2.317618561815	1
1	479	2.322275117412	1
1	483	2.336344107334	1
1	485	2.338412535349	1
1	488	2.372585848486	1
1	491	2.379307455825	1
1	494	2.395243984554	1
1	497	2.397674687346	1
1	500	2.400230169296	1
1	503	2.427454368397	1
1	508	2.46417349251	1
1	510	2.465022315295	1
1	514	2.475097612174	1
1	516	2.475526127708	1
1	520	2.478274593712	1
1	523	2.48399068599	1
1	526	2.496803756548	1
1	529	2.506999571296	1
1	532	2.514763678773	1
1	536	2.527692528559	1
1	539	2.540291399509	1
1	542	2.541721733892	1
1	545	2.559420843865	1
1	548	2.582075567822	1
1	551	2.586869883071	1
1	555	2.588529894338	1
1	557	2.58908409581	1
1	561	2.605512056848	1
1	564	2.627715859841	1
1	567	2.639234330086	1
1	570	2.6438645866	1
1	573	2.653797938651	1
1	576	2.656644151291	1
1	579	2.666960218572	1
1	582	2.678238775302	1
1	585	2.697478062707	1
1	588	2.698630891391	1
1	591	2.702548768814	1
1	594	2.709983245213	1
1	597	2.720112789469	1
1	600	2.721964536444	1
1	603	2.727901050565	1
1	606	2.732600201784	1
1	609	2.740831383294	1
1	612	2.742437843467	1
1	615	2.751327637234	1
1	618	2.769537198032	1
1	621	2.773875673347	1
1	623	2.774548280984	1
1	627	2.793918576395	1
1	630	2.809270160692	1
1	633	2.813642404298	1
1	636	2.838431551168	1
1	639	2.86779123675	1
1	642	2.871789356065	1
1	645	2.878534585913	1
1	647	2.879353477084	1
1	651	2.912880835845	1
1	653	2.913036529347	1
1	657	2.931142836832	1
1	659	2.93213049823	1
1	663	2.934168409743	1
1	666	2.966896857762	1
1	668	2.967857770248	1
1	672	2.994649656677	1
1	675	3.001030708035	1
1	678	3.00843739165	1
1	681	3.012236578833	1
1	684	3.01687962187	1
1	687	3.032344374013	1
1	690	3.035547675263	1
1	693	3.04034074368	1
1	696	3.043875039718	1
1	699	3.048354601651	1
1	702	3.104618845856	1
1	705	3.109997916385	1
1	708	3.112639998481	1
1	711	3.128858144976	1
1	714	3.133046880015	1
1	717	3.137364435825	1
1	720	3.14604621448	1
1	723	3.147973990906	1
1	726	3.151549491101	1
1	729	3.156470871205	1
1	732	3.168961233995	1
1	735	3.17821854339	1
1	738	3.195866995421	1
1	741	3.216331343981	1
1	744	3.227642026288	1
1	747	3.234336955077	1
1	749	3.234362069542	1
1	753	3.237669200288	1
1	756	3.240764642391	1
1	759	3.243483664188	1
1	762	3.250911857281	1
1	765	3.260025478318	1
1	768	3.271528252004	1
1	771	3.27605900534	1
1	774	3.28281508342	1
1	777	3.296982976584	1
1	780	3.311860183487	1
1	783	3.323712260881	1
1	786	3.356730848877	1
1	789	3.36958268329	1
1	792	3.370817414904	1
1	795	3.382665827405	1
1	798	3.387179383333	1
1	801	3.404377682949	1
1	803	3.404622695665	1
1	807	3.411973990407	1
1	810	3.423977564624	1
1	813	3.426886746544	1
1	816	3.462921418993	1
1	819	3.469634760241	1
1	822	3.471569249943	1
1	825	3.478378169308	1
1	828	3.50559132269	1
1	830	3.505807065685	1
1	834	3.512030451069	1
1	837	3.51805780183	1
1	840	3.535781470315	1
1	843	3.555254974962	1
1	846	3.560227146767	1
1	849	3.567281166907	1
1	852	3.569396081427	1
1	855	3.583099168074	1
1	858	3.602831894509	1
1	861	3.605739116203	1
1	864	3.630434065615	1
1	867	3.643229005207	1
1	870	3.64454552664	1
1	873	3.646989140938	1
1	876	3.654210743819	1
1	879	3.661550650839	1
1	882	3.677340610605	1
1	885	3.682925132173	1
1	888	3.684018206037	1
1	891	3.712142877979	1
1	894	3.716322861985	1
1	897	3.724130638898	1
1	900	3.737198222941	1
1	903	3.751832455351	1
1	906	3.758380469494	1
1	909	3.75938332819	1
1	912	3.762046770285	1
1	914	3.762436748808	1
1	918	3.765465983657	1
1	921	3.776551625087	1
1	924	3.800173219782	1
1	927	3.810677631852	1
1	930	3.813470221706	1
1	933	3.855288926047	1
1	936	3.856967813336	1
1	939	3.859425675264	1
1	942	3.861152897007	1
1	945	3.862497940077	1
1	948	3.876698614937	1
1	951	3.889213809999	1
1	954	3.898199121421	1
1	957	3.928125175973	1
1	960	3.933450946631	1
1	962	3.934446698799	1
1	966	3.938483599923	1
1	969	3.939512539793	1
1	972	3.986645277822	1
1	975	4.001764440163	1
1	978	4.002932972299	1
1	981	4.009703949281	1
1	983	4.009776499331	1
1	987	4.01399593416	1
1	990	4.015889146411	1
1	993	4.035099604446	1
1	996	4.037291436271	1
1	999	4.086693644315	1
1	1002	4.090505550872	1
1	1005	4.092352866917	1
1	1008	4.098012633064	1
1	1011	4.10114390119	1
1	1014	4.124498362979	1
1	1016	4.124797916085	1
1	1020	4.130903515243	1
1	1023	4.162929838081	1
1	1026	4.174285687414	1
1	1028	4.175005998392	1
1	1032	4.182308647921	1
1	1034	4.182928048632	1
1	1038	4.188983980543	1
1	1041	4.19370106177	1
1	1044	4.215674012598	1
1	1047	4.220203618565	1
1	1050	4.223912297841	1
1	1053	4.226465367129	1
1	1056	4.235737905605	1
1	1059	4.249321199675	1
1	1062	4.254867434595	1
1	1065	4.272901986936	1
1	1068	4.278236832819	1
1	1071	4.282773463336	1
1	1074	4.293483788171	1
1	1077	4.302376220074	1
1	1080	4.312903228425	1
1	1083	4.325428876188	1
1	1086	4.348225105484	1
1	1089	4.356541860244	1
1	1092	4.359296697145	1
1	1095	4.378867813665	1
1	1098	4.390590110375	1
1	1101	4.418911480834	1
1	1104	4.420007630693	1
1	1107	4.432326943916	1
1	1110	4.434752104292	1
1	1113	4.439605971518	1
1	1116	4.449003538489	1
1	1119	4.4803135223	1
1	1122	4.482705754529	1
1	1125	4.488597694248	1
1	1128	4.492287218081	1
1	1130	4.493146409187	1
1	1134	4.495324522933	1
1	1137	4.509981986251	1
1	1140	4.522998188948	1
1	1143	4.535771690354	1
1	1146	4.54528483937	1
1	1149	4.556365258853	1
1	1152	4.578017709217	1
1	1155	4.60353203884	1
1	1158	4.607251790516	1
1	1161	4.614733936847	1
1	1164	4.621150621772	1
1	1167	4.623789204145	1
1	1170	4.645103483972	1
1	1173	4.648269513296	1
1	1176	4.663433622942	1
1	1179	4.672297298489	1
1	1182	4.674725000841	1
1	1185	4.676881063077	1
1	1188	4.679724811273	1
1	1191	4.68740790349	1
1	1194	4.69796465477	1
1	1197	4.702519084955	1
1	1200	4.735553745111	1
1	1203	4.741801853826	1
1	1206	4.744539646828	1
1	1209	4.762639746258	1
1	1212	4.779368571704	1
1	1214	4.779984809994	1
1	1218	4.790150874179	1
1	1221	4.7932996382	1
1	1224	4.798929832248	1
1	1226	4.799841720961	1
1	1231	4.833777526603	1
1	1234	4.835533907451	1
1	1237	4.84541228381	1
1	1240	4.847525378573	1
1	1244	4.872658646922	1
1	1246	4.872940936662	1
1	1250	4.888964348006	1
1	1254	4.90723273179	1
1	1257	4.915275014867	1
1	1261	4.932192740984	1
1	1264	4.933414731011	1
1	1266	4.934198603173	1
1	1270	4.947668717452	1
1	1272	4.948141410994	1
1	1276	4.978144870465	1
1	1279	4.979754617204	1
1	1282	4.991249036742	1
1	1285	5.000658783548	1
1	1288	5.009132239177	1
1	1291	5.017903580189	1
1	1294	5.025984899561	1
1	1297	5.033293207991	1
1	1302	5.060806157789	1
1	1305	5.072222414032	1
1	1308	5.082066269661	1
1	1311	5.090918558488	1
1	1314	5.102783688343	1
1	1317	5.106463043461	1
1	1320	5.110814408097	1
1	1323	5.121929494478	1
1	1326	5.130667885068	1
1	1329	5.144723113113	1
1	1332	5.14653753764	1
1	1335	5.172692654887	1
1	1338	5.182707332656	1
1	1341	5.19312392003	1
1	1344	5.198884357209	1
1	1347	5.210487081018	1
1	1350	5.213980531436	1
1	1353	5.217068047054	1
1	1356	5.218720809579	1
1	1359	5.234718764294	1
1	1362	5.242023487132	1
1	1365	5.243690710655	1
1	1367	5.244006641001	1
1	1371	5.253412919888	1
1	1374	5.259394684994	1
1	1377	5.261060781056	1
1	1380	5.267468202509	1
1	1383	5.299734573346	1
1	1386	5.311382776219	1
1	1389	5.326472948771	1
1	1392	5.334777317615	1
1	1395	5.352853330598	1
1	1398	5.356937953458	1
1	1401	5.373275355226	1
1	1404	5.398223258205	1
1	1407	5.409862094606	1
1	1410	5.419225496729	1
1	1413	5.435013293567	1
1	1416	5.437022567586	1
1	1419	5.438489739946	1
1	1422	5.439581313938	1
1	1425	5.446045666793	1
1	1428	5.475625853309	1
1	1431	5.476635814923	1
1	1434	5.485688715755	1
1	1437	5.49411740247	1
1	1440	5.496650791984	1
1	1443	5.501474361075	1
1	1446	5.50821509892	1
1	1449	5.540081890183	1
1	1452	5.556997033604	1
1	1455	5.574323500904	1
1	1458	5.5818964154	1
1	1461	5.586966749792	1
1	1463	5.587817292031	1
1	1467	5.588851975302	1
1	1470	5.617362367129	1
1	1473	5.628366716206	1
1	1476	5.640706681973	1
1	1479	5.647509643715	1
1	1482	5.654378379694	1
1	1485	5.660552518071	1
1	1488	5.677044102921	1
1	1491	5.687821504892	1
1	1494	5.690998446057	1
1	1497	5.703557936452	1
1	1500	5.705032509379	1
1	1503	5.719992437958	1
1	1505	5.720444484497	1
1	1509	5.742920296989	1
1	1512	5.7567985415	1
1	1515	5.759081677512	1
1	1518	5.764939953131	1
1	1521	5.771774466965	1
1	1524	5.781598439976	1
1	1527	5.788073358358	1
1	1529	5.788772917817	1
1	1533	5.79594067007	1
1	1536	5.805722871028	1
1	1539	5.813682816691	1
1	1542	5.83498442783	1
1	1545	5.840884879581	1
1	1547	5.841057699197	1
1	1551	5.873119468778	1
1	1554	5.879661008692	1
1	1557	5.892871736596	1
1	1560	5.910982505324	1
1	1563	5.920746515272	1
1	1566	5.924451786139	1
1	1569	5.936170439863	1
1	1572	5.942526822443	1
1	1575	5.947526584379	1
1	1578	5.95893669387	1
1	1581	5.976711805352	1
1	1584	5.984202397195	1
1	1587	5.991575588682	1
1	1590	5.9944384231	1
1	1593	6.007090165814	1
1	1596	6.021659325877	1
1	1599	6.035120512172	1
1	1602	6.038411576253	1
1	1605	6.06444209323	1
1	1607	6.064544896665	1
1	1611	6.068124091486	1
1	1614	6.095178392646	1
1	1617	6.103934280039	1
1	1620	6.11351426267	1
1	1623	6.120579963549	1
1	1626	6.137095099293	1
1	1629	6.144095280185	1
1	1631	6.144969112286	1
1	1635	6.165446566047	1
1	1638	6.170313692722	1
1	1641	6.17306414505	1
1	1644	6.181432239291	1
1	1647	6.183231066261	1
1	1650	6.186787414014	1
1	1653	6.209348812582	1
1	1656	6.216551815975	1
1	1659	6.218237559218	1
1	1662	6.244294243446	1
1	1665	6.260312393821	1
1	1668	6.274245934074	1
1	1671	6.27672840932	1
1	1674	6.285773381241	1
1	1677	6.295557887248	1
1	1680	6.316489163645	1
1	1682	6.317164160754	1
1	1684	6.317420631927	1
1	1689	6.333830025002	1
1	1692	6.342903595023	1
1	1695	6.356084297341	1
1	1698	6.388162312959	1
1	1701	6.399363295572	1
1	1704	6.406045751809	1
1	1707	6.416829302115	1
1	1710	6.42514537559	1
1	1713	6.431998670193	1
1	1716	6.435508155961	1
1	1719	6.46406365747	1
1	1721	6.465049919416	1
1	1725	6.469798164372	1
1	1727	6.470302759925	1
1	1731	6.483593637471	1
1	1734	6.486537091363	1
1	1736	6.487535280502	1
1	1740	6.496224584851	1
1	1742	6.496649769997	1
1	1746	6.52493934983	1
1	1749	6.537414788758	1
1	1752	6.56854798412	1
1	1755	6.57590656355	1
1	1758	6.578217188969	1
1	1761	6.582414477713	1
1	1764	6.58491852933	1
1	1767	6.596608360367	1
1	1770	6.597816516785	1
1	1773	6.621814771603	1
1	1776	6.629783876566	1
1	1779	6.6311074225	1
1	1782	6.632205990654	1
1	1785	6.645269641558	1
1	1788	6.646743788967	1
1	1791	6.654471290809	1
1	1794	6.669391663211	1
1	1797	6.689101657388	1
1	1799	6.689865740156	1
1	1803	6.692432129942	1
1	1806	6.695597303704	1
1	1809	6.700058922847	1
1	1812	6.760603566027	1
1	1815	6.762218709244	1
1	1818	6.77566471994	1
1	1821	6.781806696975	1
1	1824	6.789769374439	1
1	1826	6.789966967842	1
1	1830	6.817083567871	1
1	1833	6.823299484722	1
1	1836	6.829992310051	1
1	1839	6.834226049506	1
1	1842	6.850118271914	1
1	1845	6.874002800301	1
1	1847	6.874581137928	1
1	1851	6.880581158075	1
1	1854	6.885870291712	1
1	1857	6.904257492884	1
1	1860	6.917008060986	1
1	1862	6.917518158815	1
1	1866	6.930817048739	1
1	1869	6.933684093433	1
1	1872	6.968945681047	1
1	1875	6.971206219307	1
1	1878	6.979052135278	1
1	1881	6.98058951723	1
1	1884	7.00182806051	1
1	1887	7.008284985903	1
1	1890	7.018901205413	1
1	1893	7.024995491515	1
1	1896	7.026455140673	1
1	1899	7.031362328235	1
1	1902	7.050496608485	1
1	1905	7.058977218508	1
1	1908	7.067653086293	1
1	1911	7.076306092694	1
1	1914	7.08124684957	1
1	1917	7.084992989618	1
1	1920	7.119540599384	1
1	1923	7.121313451183	1
1	1926	7.122883879578	1
1	1929	7.127664028806	1
1	1932	7.133983436624	1
1	1935	7.142526851804	1
1	1938	7.151777543267	1
1	1941	7.153979286202	1
1	1944	7.158525072689	1
1	1947	7.183311308267	1
1	1950	7.189432452852	1
1	1953	7.205106968923	1
1	1956	7.236674742261	1
1	1958	7.237612227	1
1	1962	7.263567644009	1
1	1965	7.278693865986	1
1	1968	7.283990776353	1
1	1971	7.297916691332	1
1	1974	7.300522281485	1
1	1977	7.313546697842	1
1	1980	7.316087319167	1
1	1983	7.319302280736	1
1	1987	7.335074894573	1
1	1990	7.348278898491	1
1	1994	7.357024560914	1
1	1997	7.363568561314	1
1	2000	7.370622368927	1
1	2004	7.39323045765	1
1	2006	7.394083270824	1
1	2010	7.403937178595	1
1	2013	7.405039029753	1
1	2016	7.407744639739	1
1	2019	7.411350000208	1
1	2022	7.415141700046	1
1	2025	7.467798934643	1
1	2029	7.48670779206	1
1	2032	7.488054366084	1
1	2035	7.495396632772	1
1	2038	7.503839361947	1
1	2041	7.512712516961	1
1	2044	7.519853243301	1
1	2047	7.521108121379	1
1	2051	7.529219424211	1
1	2054	7.532365012123	1
1	2057	7.537213499053	1
1	2061	7.55128703944	1
1	2064	7.563956838894	1
1	2066	7.564229439968	1
1	2070	7.568160080213	1
1	2073	7.576582644763	1
1	2076	7.639849535818	1
1	2079	7.648444243729	1
1	2082	7.650779407447	1
1	2084	7.651459166291	1
1	2088	7.654169022455	1
1	2090	7.65494575936	1
1	2092	7.655114261222	1
1	2097	7.657768209255	1
1	2100	7.663935756567	1
1	2103	7.697712065768	1
1	2105	7.698414586275	1
1	2109	7.716877838782	1
1	2112	7.727094896651	1
1	2115	7.738671466521	1
1	2118	7.743672979321	1
1	2121	7.74851714978	1
1	2124	7.759740891423	1
1	2127	7.781347764843	1
1	2130	7.803147388228	1
1	2133	7.817743638367	1
1	2136	7.826380538592	1
1	2138	7.827307513309	1
1	2142	7.835119105828	1
1	2145	7.852355225661	1
1	2148	7.857110458613	1
1	2151	7.862272601713	1
1	2154	7.865969484138	1
1	2157	7.871032817172	1
1	2159	7.871118654499	1
1	2163	7.898625341385	1
1	2166	7.913099655274	1
1	2168	7.913718429301	1
1	2172	7.924243433355	1
1	2175	7.928113220586	1
1	2178	7.96227820518	1
1	2181	7.976467064278	1
1	2184	7.991006669962	1
1	2186	7.991357702248	1
1	2190	7.998368462828	1
1	2193	8.005633650255	1
1	2196	8.010324560362	1
1	2199	8.014795103274	1
1	2202	8.02917944314	1
1	2205	8.046622776775	1
1	2208	8.053925728774	1
1	2211	8.06265857632	1
1	2214	8.06453726343	1
1	2217	8.067907980154	1
1	2220	8.075956802723	1
1	2223	8.092006341904	1
1	2226	8.108099519019	1
1	2229	8.127566681267	1
1	2232	8.131516031245	1
1	2235	8.142833284218	1
1	2238	8.147952651232	1
1	2241	8.166327959346	1
1	2244	8.180501665477	1
1	2246	8.180686457174	1
1	2248	8.180970092746	1
1	2253	8.182922425728	1
1	2256	8.191059807548	1
1	2259	8.232241957449	1
1	2262	8.249905043957	1
1	2265	8.252889496902	1
1	2268	8.254452973906	1
1	2271	8.262247550929	1
1	2274	8.275804932974	1
1	2277	8.288174049812	1
1	2280	8.289203892324	1
1	2283	8.300185199548	1
1	2286	8.310056158086	1
1	2289	8.321366240062	1
1	2291	8.321635605836	1
1	2295	8.324376388313	1
1	2298	8.326284954836	1
1	2301	8.328246628005	1
1	2304	8.332821600188	1
1	2307	8.357366115368	1
1	2310	8.379776114713	1
1	2313	8.38325161291	1
1	2316	8.398397901119	1
1	2319	8.417189395521	1
1	2322	8.425188321411	1
1	2324	8.425946713353	1
1	2328	8.468375329136	1
1	2331	8.472549774941	1
1	2334	8.475586112099	1
1	2337	8.478170252872	1
1	2340	8.485860366608	1
1	2342	8.485933099594	1
1	2346	8.491676022229	1
1	2349	8.52577044312	1
1	2352	8.534462120339	1
1	2354	8.534563195217	1
1	2358	8.538742782338	1
1	2361	8.546518445668	1
1	2364	8.573755274829	1
1	2366	8.574608649406	1
1	2370	8.58763340225	1
1	2373	8.601942350878	1
1	2375	8.602483230876	1
1	2379	8.605546883052	1
1	2382	8.624007039565	1
1	2385	8.63726423476	1
1	2387	8.637744560604	1
1	2391	8.646325160958	1
1	2394	8.647763094562	1
1	2397	8.678285200078	1
1	2400	8.686122448672	1
1	2403	8.693472598656	1
1	2406	8.721657923491	1
1	2409	8.741806384408	1
1	2412	8.746786060812	1
1	2415	8.751278401165	1
1	2418	8.752953463351	1
1	2421	8.754253518372	1
1	2424	8.756669657164	1
1	2427	8.782276100503	1
1	2430	8.783923950582	1
1	2433	8.799610596779	1
1	2436	8.804641601538	1
1	2439	8.814432353621	1
1	2442	8.81821918208	1
1	2445	8.840012625419	1
1	2448	8.844253600087	1
1	2451	8.846453486335	1
1	2454	8.855363057739	1
1	2457	8.86330818441	1
1	2460	8.86908834218	1
1	2463	8.887802549475	1
1	2466	8.892453357039	1
1	2469	8.894449316917	1
1	2472	8.922123601288	1
1	2475	8.925409570337	1
1	2478	8.95866527718	1
1	2480	8.9587315019	1
1	2484	8.966354571447	1
1	2487	8.986873272108	1
1	2490	8.990098272497	1
1	2493	9.003251709067	1
1	2496	9.0054605942	1
1	2499	9.010917437983	1
1	2502	9.014505588008	1
1	2505	9.056906043668	1
1	2508	9.076952788631	1
1	2511	9.078115054524	1
1	2514	9.079588358198	1
1	2517	9.082917118749	1
1	2520	9.091770980693	1
1	2523	9.118247762742	1
1	2526	9.128130247911	1
1	2529	9.139212028799	1
1	2532	9.149152174941	1
1	2535	9.154281993258	1
1	2538	9.155298007558	1
1	2541	9.159003227972	1
1	2544	9.161917471326	1
1	2547	9.168850520136	1
1	2549	9.169207409676	1
1	2553	9.17741824542	1
1	2556	9.200071652116	1
1	2559	9.201328144851	1
1	2562	9.220254741422	1
1	2565	9.227639435254	1
1	2568	9.231401503761	1
1	2571	9.235368306794	1
1	2574	9.256957045292	1
1	2577	9.26809920019	1
1	2580	9.269964852578	1
1	2583	9.272140008142	1
1	2586	9.276276366483	1
1	2589	9.290632146225	1
1	2592	9.300300614047	1
1	2595	9.341529539252	1
1	2598	9.357477922996	1
1	2601	9.358974339579	1
1	2603	9.359814194545	1
1	2607	9.372516460365	1
1	2610	9.380154354591	1
1	2613	9.381648495046	1
1	2616	9.389773322943	1
1	2619	9.407798151741	1
1	2622	9.426226048382	1
1	2625	9.436779200054	1
1	2628	9.438930887845	1
1	2631	9.449732524506	1
1	2634	9.462241041288	1
1	2637	9.466000201158	1
1	2640	9.467497695004	1
1	2643	9.512021698525	1
1	2646	9.534596222685	1
1	2649	9.540179456189	1
1	2651	9.540863541795	1
1	2655	9.543825938065	1
1	2658	9.545061410498	1
1	2661	9.547365465177	1
1	2664	9.566835776251	1
1	2667	9.577590469155	1
1	2670	9.580463809405	1
1	2673	9.619920868845	1
1	2676	9.634249581909	1
1	2679	9.640614227345	1
1	2682	9.645308564744	1
1	2685	9.651931304716	1
1	2687	9.652644127956	1
1	2691	9.654141221753	1
1	2694	9.656339196347	1
1	2697	9.66841138478	1
1	2700	9.672514903754	1
1	2702	9.672958639963	1
1	2706	9.67517488203	1
1	2709	9.680054275877	1
1	2712	9.697313504154	1
1	2715	9.713170576537	1
1	2718	9.735927013912	1
1	2721	9.756306875752	1
1	2724	9.759474692562	1
1	2727	9.768873035233	1
1	2730	9.773217093014	1
1	2733	9.77814306086	1
1	2736	9.797963108147	1
1	2739	9.810554388515	1
1	2741	9.811267062766	1
1	2746	9.84581558162	1
1	2750	9.854843091359	1
1	2752	9.854946485043	1
1	2756	9.857926795284	1
1	2759	9.88000802805	1
1	2762	9.887731848189	1
1	2765	9.889609557276	1
1	2769	9.894866023328	1
1	2772	9.896678721277	1
1	2775	9.900240549819	1
1	2778	9.916288521607	1
1	2781	9.924136475963	1
1	2784	9.93525617225	1
1	2787	9.965994394477	1
1	2790	9.977268429078	1
1	2793	9.9859000396	1
2	3	0.560677898185	0.000999898185
2	6	0.58472648526	0.00100048526
2	9	0.640950763201	0.000999763201
2	12	0.676451755989	0.000999755989
2	15	0.683491732528	0.000999732528
2	18	0.727851454936	0.001000454936
2	21	0.745759279769	0.001000279769
2	24	0.787139338743	0.001000338743
2	27	0.798780498164	0.001000498164
2	30	0.825150895933	0.000999895933
2	33	0.844178014737	0.001000014737
2	36	0.858728919946	0.000999919946
2	39	0.893117517302	0.000999517302
2	42	0.899044250906	0.001000250906
2	45	0.902017554104	0.000999554104
2	48	0.911924367839	0.001000367839
2	51	0.918209947016	0.000999947016
2	54	0.924106460599	0.001000460599
2	59	0.928863489604	0.001000489604
2	60	0.929470924962	0.000999924962
2	63	0.93957224728	0.00100024728
2	66	0.941257177455	0.001000177455
2	69	0.981931907427	0.000999907427
2	74	0.992118932609	0.000999932609
2	75	0.993084773025	0.000999773025
2	80	1.032551370164	0.001000370164
2	81	1.032827588566	0.000999588566
2	84	1.052314765122	0.000999765122
2	87	1.070905351056	0.001000351056
2	90	1.076150029151	0.001000029151
2	93	1.080694297398	0.001000297398
2	96	1.094902397901	0.001000397901
2	99	1.112023514532	0.000999514532
2	104	1.128317003906	0.001000003906
2	105	1.128330906409	0.000999906409
2	108	1.132792020286	0.001000020286
2	111	1.135400961921	0.000999961921
2	114	1.149278079531	0.001000079531
2	117	1.156943019874	0.001000019874
2	120	1.185829734266	0.000999734266
2	123	1.191884851385	0.000999851385
2	126	1.195755175151	0.001000175151
2	129	1.197469187271	0.001000187271
2	132	1.207222858862	0.000999858862
2	137	1.213330177892	0.001000177892
2	138	1.213955321418	0.001000321418
2	143	1.220150308752	0.001000308752
2	144	1.22046897055	0.00099997055
2	147	1.223443384118	0.001000384118
2	150	1.22545532144	0.00100032144
2	153	1.230049708461	0.000999708461
2	156	1.238995401956	0.001000401956
2	159	1.241296386881	0.001000386881
2	162	1.281027760426	0.000999760426
2	165	1.284361389581	0.001000389581
2	168	1.29455880823	0.00099980823
2	171	1.300236950744	0.000999950744
2	174	1.325380093185	0.001000093185
2	177	1.345915712741	0.000999712741
2	180	1.350431794137	0.000999794137
2	183	1.352099037193	0.001000037193
2	186	1.369408205965	0.001000205965
2	189	1.371878458419	0.001000458419
2	192	1.383618171396	0.001000171396
2	195	1.38657213787	0.00100013787
2	198	1.392130527156	0.000999527156
2	203	1.410697046689	0.001000046689
2	204	1.411292877722	0.000999877722
2	207	1.416689489874	0.001000489874
2	210	1.433892307848	0.001000307848
2	213	1.478558817272	0.000999817272
2	216	1.481764200445	0.001000200445
2	219	1.506969777867	0.000999777867
2	222	1.512425096961	0.001000096961
2	225	1.531457849079	0.000999849079
2	228	1.534003926184	0.000999926184
2	231	1.552498432504	0.001000432504
2	234	1.556464237556	0.001000237556
2	237	1.567332156467	0.001000156467
2	240	1.576967372302	0.001000372302
2	243	1.587537367199	0.001000367199
2	246	1.588545324349	0.001000324349
2	249	1.592278459831	0.001000459831
2	252	1.610045552043	0.000999552043
2	255	1.624274641438	0.000999641438
2	258	1.628061785454	0.000999785454
2	263	1.652777746272	0.000999746272
2	264	1.653727252781	0.001000252781
2	267	1.660875270887	0.001000270887
2	272	1.685908994892	0.000999994892
2	275	1.686613771039	0.000999771039
2	276	1.687518188077	0.001000188077
2	279	1.694058601464	0.000999601464
2	282	1.69701836591	0.00100036591
2	285	1.698612887574	0.000999887574
2	288	1.713836374994	0.001000374994
2	291	1.715903833601	0.000999833601
2	294	1.72813892092	0.00099992092
2	297	1.731758423032	0.001000423032
2	300	1.748597683966	0.000999683966
2	303	1.755778837366	0.000999837366
2	306	1.762631683051	0.000999683051
2	311	1.771069227717	0.001000227717
2	312	1.771629481831	0.001000481831
2	315	1.79133377308	0.00099977308
2	318	1.7935787749	0.0009997749
2	321	1.796891447854	0.001000447854
2	324	1.799065608833	0.000999608833
2	327	1.809656476765	0.001000476765
2	330	1.830843873345	0.000999873345
2	333	1.836178635712	0.000999635712
2	336	1.86111042695	0.00100042695
2	339	1.887477428977	0.001000428977
2	342	1.89080565907	0.00099965907
2	345	1.901748247397	0.001000247397
2	350	1.912335111712	0.001000111712
2	351	1.912364281224	0.001000281224
2	354	1.923509066272	0.001000066272
2	357	1.929676211392	0.001000211392
2	360	1.950823686154	0.000999686154
2	363	1.955386947653	0.000999947653
2	366	1.990357855147	0.000999855147
2	369	2.00850931548	0.00100031548
2	372	2.024915447039	0.001000447039
2	377	2.034869422693	0.001000422693
2	378	2.035286871436	0.000999871436
2	381	2.040675057354	0.001000057354
2	384	2.051472831447	0.000999831447
2	387	2.055504633695	0.000999633695
2	390	2.069034011545	0.001000011545
2	393	2.084412189944	0.001000189944
2	396	2.090698481327	0.001000481327
2	399	2.092308269743	0.001000269743
2	402	2.097484081423	0.001000081423
2	405	2.114913607969	0.000999607969
2	410	2.131389369676	0.001000369676
2	411	2.132105081294	0.001000081294
2	414	2.145480246561	0.001000246561
2	417	2.152209366577	0.001000366577
2	422	2.160068595548	0.000999595548
2	423	2.160972949001	0.000999949001
2	426	2.179751841583	0.000999841583
2	429	2.188701457925	0.001000457925
2	432	2.2097432625	0.0010002625
2	435	2.226050870911	0.000999870911
2	438	2.22946317885	0.00100017885
2	443	2.236178010142	0.001000010142
2	446	2.236767187993	0.001000187993
2	447	2.237525446548	0.001000446548
2	450	2.240518567593	0.000999567593
2	455	2.258040872052	0.000999872052
2	456	2.258885826193	0.000999826193
2	459	2.265332825598	0.000999825598
2	462	2.268310202099	0.001000202099
2	465	2.269413093151	0.001000093151
2	468	2.270510706678	0.000999706678
2	471	2.271789659675	0.000999659675
2	474	2.312720515905	0.000999515905
2	477	2.318618561815	0.000999561815
2	481	2.323275117412	0.001000117412
2	484	2.337344107334	0.001000107334
2	486	2.339412535349	1.839412535349
2	489	2.373585848486	0.000999848486
2	492	2.380307455825	0.001000455825
2	495	2.396243984554	0.000999984554
2	498	2.398674687346	0.000999687346
2	501	2.401230169296	0.001000169296
2	504	2.428454368397	0.001000368397
2	511	2.46517349251	0.00100049251
2	512	2.466022315295	0.001000315295
2	517	2.476097612174	0.000999612174
2	518	2.476526127708	0.001000127708
2	521	2.479274593712	0.000999593712
2	524	2.48499068599	0.00099968599
2	527	2.497803756548	0.000999756548
2	530	2.507999571296	0.000999571296
2	533	2.515763678773	0.000999678773
2	537	2.528692528559	0.000999528559
2	540	2.541291399509	0.001000399509
2	543	2.542721733892	0.000999733892
2	546	2.560420843865	0.000999843865
2	549	2.583075567822	0.000999567822
2	552	2.587869883071	0.000999883071
2	558	2.589529894338	0.000999894338
2	559	2.59008409581	0.00100009581
2	562	2.606512056848	0.001000056848
2	565	2.628715859841	0.000999859841
2	568	2.640234330086	0.001000330086
2	571	2.6448645866	0.0009995866
2	574	2.654797938651	0.000999938651
2	577	2.657644151291	0.001000151291
2	580	2.667960218572	0.001000218572
2	583	2.679238775302	0.000999775302
2	586	2.698478062707	0.001000062707
2	589	2.699630891391	0.000999891391
2	592	2.703548768814	0.000999768814
2	595	2.710983245213	0.001000245213
2	598	2.721112789469	0.000999789469
2	601	2.722964536444	0.000999536444
2	604	2.728901050565	0.001000050565
2	607	2.733600201784	0.001000201784
2	610	2.741831383294	0.001000383294
2	613	2.743437843467	0.000999843467
2	616	2.752327637234	0.000999637234
2	619	2.770537198032	0.001000198032
2	624	2.774875673347	0.000999673347
2	625	2.775548280984	0.001000280984
2	628	2.794918576395	0.000999576395
2	631	2.810270160692	0.001000160692
2	634	2.814642404298	0.001000404298
2	637	2.839431551168	0.000999551168
2	640	2.86879123675	0.00100023675
2	643	2.872789356065	0.001000356065
2	648	2.879534585913	0.000999585913
2	649	2.880353477084	0.001000477084
2	654	2.913880835845	0.000999835845
2	655	2.914036529347	0.000999529347
2	660	2.932142836832	0.000999836832
2	661	2.93313049823	0.00100049823
2	664	2.935168409743	0.001000409743
2	669	2.967896857762	0.000999857762
2	670	2.968857770248	0.000999770248
2	673	2.995649656677	0.000999656677
2	676	3.002030708035	0.000999708035
2	679	3.00943739165	0.00100039165
2	682	3.013236578833	0.000999578833
2	685	3.01787962187	0.00099962187
2	688	3.033344374013	0.001000374013
2	691	3.036547675263	0.000999675263
2	694	3.04134074368	0.00099974368
2	697	3.044875039718	0.001000039718
2	700	3.049354601651	0.000999601651
2	703	3.105618845856	0.000999845856
2	706	3.110997916385	0.000999916385
2	709	3.113639998481	0.000999998481
2	712	3.129858144976	0.001000144976
2	715	3.134046880015	0.000999880015
2	718	3.138364435825	0.001000435825
2	721	3.14704621448	0.00100021448
2	724	3.148973990906	0.000999990906
2	727	3.152549491101	0.001000491101
2	730	3.157470871205	0.000999871205
2	733	3.169961233995	0.001000233995
2	736	3.17921854339	0.00099954339
2	739	3.196866995421	0.000999995421
2	742	3.217331343981	0.001000343981
2	745	3.228642026288	0.001000026288
2	750	3.235336955077	0.000999955077
2	751	3.235362069542	0.001000069542
2	754	3.238669200288	0.001000200288
2	757	3.241764642391	0.000999642391
2	760	3.244483664188	0.000999664188
2	763	3.251911857281	0.000999857281
2	766	3.261025478318	0.001000478318
2	769	3.272528252004	0.001000252004
2	772	3.27705900534	0.00100000534
2	775	3.28381508342	0.00100008342
2	778	3.297982976584	0.000999976584
2	781	3.312860183487	0.001000183487
2	784	3.324712260881	0.001000260881
2	787	3.357730848877	0.000999848877
2	790	3.37058268329	0.00099968329
2	793	3.371817414904	0.001000414904
2	796	3.383665827405	0.000999827405
2	799	3.388179383333	0.001000383333
2	804	3.405377682949	0.000999682949
2	805	3.405622695665	0.000999695665
2	808	3.412973990407	0.000999990407
2	811	3.424977564624	0.000999564624
2	814	3.427886746544	0.000999746544
2	817	3.463921418993	0.001000418993
2	820	3.470634760241	0.000999760241
2	823	3.472569249943	0.001000249943
2	826	3.479378169308	0.001000169308
2	831	3.50659132269	0.00100032269
2	832	3.506807065685	0.001000065685
2	835	3.513030451069	0.001000451069
2	838	3.51905780183	0.00099980183
2	841	3.536781470315	0.001000470315
2	844	3.556254974962	0.000999974962
2	847	3.561227146767	0.001000146767
2	850	3.568281166907	0.001000166907
2	853	3.570396081427	0.001000081427
2	856	3.584099168074	0.001000168074
2	859	3.603831894509	0.000999894509
2	862	3.606739116203	0.001000116203
2	865	3.631434065615	0.001000065615
2	868	3.644229005207	0.001000005207
2	871	3.64554552664	0.00099952664
2	874	3.647989140938	0.001000140938
2	877	3.655210743819	0.000999743819
2	880	3.662550650839	0.000999650839
2	883	3.678340610605	0.000999610605
2	886	3.683925132173	0.001000132173
2	889	3.685018206037	0.001000206037
2	892	3.713142877979	0.000999877979
2	895	3.717322861985	0.000999861985
2	898	3.725130638898	0.000999638898
2	901	3.738198222941	0.001000222941
2	904	3.752832455351	0.001000455351
2	907	3.759380469494	0.001000469494
2	910	3.76038332819	0.00100032819
2	915	3.763046770285	0.000999770285
2	916	3.763436748808	0.000999748808
2	919	3.766465983657	0.000999983657
2	922	3.777551625087	0.000999625087
2	925	3.801173219782	0.001000219782
2	928	3.811677631852	0.000999631852
2	931	3.814470221706	0.001000221706
2	934	3.856288926047	0.000999926047
2	937	3.857967813336	0.000999813336
2	940	3.860425675264	0.000999675264
2	943	3.862152897007	0.000999897007
2	946	3.863497940077	0.000999940077
2	949	3.877698614937	0.000999614937
2	952	3.890213809999	0.000999809999
2	955	3.899199121421	0.001000121421
2	958	3.929125175973	0.001000175973
2	963	3.934450946631	0.000999946631
2	964	3.935446698799	0.000999698799
2	967	3.939483599923	0.000999599923
2	970	3.940512539793	0.000999539793
2	973	3.987645277822	0.001000277822
2	976	4.002764440163	0.001000440163
2	979	4.003932972299	0.000999972299
2	984	4.010703949281	0.000999949281
2	985	4.010776499331	0.001000499331
2	988	4.01499593416	0.00099993416
2	991	4.016889146411	0.001000146411
2	994	4.036099604446	0.000999604446
2	997	4.038291436271	0.001000436271
2	1000	4.087693644315	0.000999644315
2	1003	4.091505550872	0.000999550872
2	1006	4.093352866917	0.000999866917
2	1009	4.099012633064	0.000999633064
2	1012	4.10214390119	0.00099990119
2	1017	4.125498362979	0.001000362979
2	1018	4.125797916085	0.000999916085
2	1021	4.131903515243	0.000999515243
2	1024	4.163929838081	0.000999838081
2	1029	4.175285687414	0.000999687414
2	1030	4.176005998392	0.000999998392
2	1035	4.183308647921	0.000999647921
2	1036	4.183928048632	0.001000048632
2	1039	4.189983980543	0.000999980543
2	1042	4.19470106177	0.00100006177
2	1045	4.216674012598	0.001000012598
2	1048	4.221203618565	0.000999618565
2	1051	4.224912297841	0.001000297841
2	1054	4.227465367129	0.001000367129
2	1057	4.236737905605	0.000999905605
2	1060	4.250321199675	0.001000199675
2	1063	4.255867434595	0.001000434595
2	1066	4.273901986936	0.000999986936
2	1069	4.279236832819	0.000999832819
2	1072	4.283773463336	0.001000463336
2	1075	4.294483788171	0.000999788171
2	1078	4.303376220074	0.001000220074
2	1081	4.313903228425	0.001000228425
2	1084	4.326428876188	0.000999876188
2	1087	4.349225105484	0.001000105484
2	1090	4.357541860244	0.000999860244
2	1093	4.360296697145	0.000999697145
2	1096	4.379867813665	0.000999813665
2	1099	4.391590110375	0.001000110375
2	1102	4.419911480834	0.001000480834
2	1105	4.421007630693	0.000999630693
2	1108	4.433326943916	0.000999943916
2	1111	4.435752104292	0.001000104292
2	1114	4.440605971518	0.000999971518
2	1117	4.450003538489	0.000999538489
2	1120	4.4813135223	0.0009995223
2	1123	4.483705754529	0.000999754529
2	1126	4.489597694248	0.000999694248
2	1131	4.493287218081	0.001000218081
2	1132	4.494146409187	0.001000409187
2	1135	4.496324522933	0.000999522933
2	1138	4.510981986251	0.000999986251
2	1141	4.523998188948	0.001000188948
2	1144	4.536771690354	0.000999690354
2	1147	4.54628483937	0.00099983937
2	1150	4.557365258853	0.001000258853
2	1153	4.579017709217	0.000999709217
2	1156	4.60453203884	0.00100003884
2	1159	4.608251790516	0.000999790516
2	1162	4.615733936847	0.000999936847
2	1165	4.622150621772	0.000999621772
2	1168	4.624789204145	0.001000204145
2	1171	4.646103483972	0.001000483972
2	1174	4.649269513296	0.000999513296
2	1177	4.664433622942	0.000999622942
2	1180	4.673297298489	0.001000298489
2	1183	4.675725000841	0.001000000841
2	1186	4.677881063077	0.001000063077
2	1189	4.680724811273	0.000999811273
2	1192	4.68840790349	0.00099990349
2	1195	4.69896465477	0.00099965477
2	1198	4.703519084955	0.001000084955
2	1201	4.736553745111	0.000999745111
2	1204	4.742801853826	0.000999853826
2	1207	4.745539646828	0.000999646828
2	1210	4.763639746258	0.000999746258
2	1215	4.780368571704	0.000999571704
2	1216	4.780984809994	0.000999809994
2	1219	4.791150874179	0.000999874179
2	1222	4.7942996382	0.0009996382
2	1227	4.799929832248	0.000999832248
2	1228	4.800841720961	0.000999720961
2	1232	4.834777526603	0.000999526603
2	1235	4.836533907451	0.000999907451
2	1238	4.84641228381	0.00100028381
2	1241	4.848525378573	0.001000378573
2	1247	4.873658646922	0.000999646922
2	1248	4.873940936662	0.000999936662
2	1251	4.889964348006	0.001000348006
2	1255	4.90823273179	0.00099973179
2	1258	4.916275014867	0.001000014867
2	1262	4.933192740984	0.000999740984
2	1267	4.934414731011	0.000999731011
2	1268	4.935198603173	0.000999603173
2	1273	4.948668717452	0.000999717452
2	1274	4.949141410994	0.001000410994
2	1277	4.979144870465	0.000999870465
2	1280	4.980754617204	0.000999617204
2	1283	4.992249036742	0.001000036742
2	1286	5.001658783548	0.000999783548
2	1289	5.010132239177	0.001000239177
2	1292	5.018903580189	0.000999580189
2	1295	5.026984899561	0.000999899561
2	1298	5.034293207991	0.001000207991
2	1303	5.061806157789	0.001000157789
2	1306	5.073222414032	0.001000414032
2	1309	5.083066269661	0.001000269661
2	1312	5.091918558488	0.000999558488
2	1315	5.103783688343	0.000999688343
2	1318	5.107463043461	0.001000043461
2	1321	5.111814408097	0.001000408097
2	1324	5.122929494478	0.001000494478
2	1327	5.131667885068	0.000999885068
2	1330	5.145723113113	0.001000113113
2	1333	5.14753753764	0.00099953764
2	1336	5.173692654887	0.000999654887
2	1339	5.183707332656	0.001000332656
2	1342	5.19412392003	0.00099992003
2	1345	5.199884357209	0.001000357209
2	1348	5.211487081018	0.001000081018
2	1351	5.214980531436	0.000999531436
2	1354	5.218068047054	0.001000047054
2	1357	5.219720809579	0.000999809579
2	1360	5.235718764294	0.000999764294
2	1363	5.243023487132	0.001000487132
2	1368	5.244690710655	0.000999710655
2	1369	5.245006641001	0.000999641001
2	1372	5.254412919888	0.000999919888
2	1375	5.260394684994	0.000999684994
2	1378	5.262060781056	0.000999781056
2	1381	5.268468202509	0.001000202509
2	1384	5.300734573346	0.000999573346
2	1387	5.312382776219	0.000999776219
2	1390	5.327472948771	0.000999948771
2	1393	5.335777317615	0.001000317615
2	1396	5.353853330598	0.001000330598
2	1399	5.357937953458	0.000999953458
2	1402	5.374275355226	0.001000355226
2	1405	5.399223258205	0.001000258205
2	1408	5.410862094606	0.001000094606
2	1411	5.420225496729	0.001000496729
2	1414	5.436013293567	0.001000293567
2	1417	5.438022567586	0.000999567586
2	1420	5.439489739946	0.000999739946
2	1423	5.440581313938	0.001000313938
2	1426	5.447045666793	0.000999666793
2	1429	5.476625853309	0.000999853309
2	1432	5.477635814923	0.000999814923
2	1435	5.486688715755	0.000999715755
2	1438	5.49511740247	0.00100040247
2	1441	5.497650791984	0.000999791984
2	1444	5.502474361075	0.001000361075
2	1447	5.50921509892	0.00100009892
2	1450	5.541081890183	0.000999890183
2	1453	5.557997033604	0.001000033604
2	1456	5.575323500904	0.000999500904
2	1459	5.5828964154	0.0010004154
2	1464	5.587966749792	0.000999749792
2	1465	5.588817292031	0.001000292031
2	1468	5.589851975302	0.000999975302
2	1471	5.618362367129	0.001000367129
2	1474	5.629366716206	0.000999716206
2	1477	5.641706681973	0.000999681973
2	1480	5.648509643715	0.000999643715
2	1483	5.655378379694	0.001000379694
2	1486	5.661552518071	0.000999518071
2	1489	5.678044102921	0.001000102921
2	1492	5.688821504892	0.000999504892
2	1495	5.691998446057	0.001000446057
2	1498	5.704557936452	0.000999936452
2	1501	5.706032509379	0.000999509379
2	1506	5.720992437958	0.001000437958
2	1507	5.721444484497	0.001000484497
2	1510	5.743920296989	0.001000296989
2	1513	5.7577985415	0.0009995415
2	1516	5.760081677512	0.000999677512
2	1519	5.765939953131	0.000999953131
2	1522	5.772774466965	0.001000466965
2	1525	5.782598439976	0.001000439976
2	1530	5.789073358358	0.001000358358
2	1531	5.789772917817	0.000999917817
2	1534	5.79694067007	0.00099967007
2	1537	5.806722871028	0.000999871028
2	1540	5.814682816691	0.000999816691
2	1543	5.83598442783	0.00100042783
2	1548	5.841884879581	0.000999879581
2	1549	5.842057699197	0.000999699197
2	1552	5.874119468778	0.001000468778
2	1555	5.880661008692	0.001000008692
2	1558	5.893871736596	0.000999736596
2	1561	5.911982505324	0.000999505324
2	1564	5.921746515272	0.000999515272
2	1567	5.925451786139	0.000999786139
2	1570	5.937170439863	0.001000439863
2	1573	5.943526822443	0.000999822443
2	1576	5.948526584379	0.000999584379
2	1579	5.95993669387	0.00099969387
2	1582	5.977711805352	0.000999805352
2	1585	5.985202397195	0.001000397195
2	1588	5.992575588682	0.000999588682
2	1591	5.9954384231	0.0010004231
2	1594	6.008090165814	0.001000165814
2	1597	6.022659325877	0.001000325877
2	1600	6.036120512172	0.000999512172
2	1603	6.039411576253	0.000999576253
2	1608	6.06544209323	0.00100009323
2	1609	6.065544896665	0.000999896665
2	1612	6.069124091486	0.001000091486
2	1615	6.096178392646	0.001000392646
2	1618	6.104934280039	0.001000280039
2	1621	6.11451426267	0.00100026267
2	1624	6.121579963549	0.000999963549
2	1627	6.138095099293	0.001000099293
2	1632	6.145095280185	0.001000280185
2	1633	6.145969112286	0.001000112286
2	1636	6.166446566047	0.000999566047
2	1639	6.171313692722	0.000999692722
2	1642	6.17406414505	0.00100014505
2	1645	6.182432239291	0.001000239291
2	1648	6.184231066261	0.001000066261
2	1651	6.187787414014	0.001000414014
2	1654	6.210348812582	0.000999812582
2	1657	6.217551815975	0.000999815975
2	1660	6.219237559218	0.000999559218
2	1663	6.245294243446	0.001000243446
2	1666	6.261312393821	0.001000393821
2	1669	6.275245934074	0.000999934074
2	1672	6.27772840932	0.00100040932
2	1675	6.286773381241	0.001000381241
2	1678	6.296557887248	0.000999887248
2	1685	6.317489163645	0.001000163645
2	1686	6.318164160754	0.001000160754
2	1687	6.318420631927	0.000999631927
2	1690	6.334830025002	0.001000025002
2	1693	6.343903595023	0.000999595023
2	1696	6.357084297341	0.001000297341
2	1699	6.389162312959	0.001000312959
2	1702	6.400363295572	0.001000295572
2	1705	6.407045751809	0.000999751809
2	1708	6.417829302115	0.001000302115
2	1711	6.42614537559	0.00100037559
2	1714	6.432998670193	0.000999670193
2	1717	6.436508155961	0.001000155961
2	1722	6.46506365747	0.00099965747
2	1723	6.466049919416	0.000999919416
2	1728	6.470798164372	0.001000164372
2	1729	6.471302759925	0.000999759925
2	1732	6.484593637471	0.000999637471
2	1737	6.487537091363	0.001000091363
2	1738	6.488535280502	0.001000280502
2	1743	6.497224584851	0.000999584851
2	1744	6.497649769997	0.000999769997
2	1747	6.52593934983	0.00100034983
2	1750	6.538414788758	0.000999788758
2	1753	6.56954798412	0.00099998412
2	1756	6.57690656355	0.00099956355
2	1759	6.579217188969	0.001000188969
2	1762	6.583414477713	0.001000477713
2	1765	6.58591852933	0.00099952933
2	1768	6.597608360367	0.001000360367
2	1771	6.598816516785	0.000999516785
2	1774	6.622814771603	0.000999771603
2	1777	6.630783876566	0.000999876566
2	1780	6.6321074225	0.0010004225
2	1783	6.633205990654	0.000999990654
2	1786	6.646269641558	0.000999641558
2	1789	6.647743788967	0.000999788967
2	1792	6.655471290809	0.001000290809
2	1795	6.670391663211	0.000999663211
2	1800	6.690101657388	0.000999657388
2	1801	6.690865740156	0.000999740156
2	1804	6.693432129942	0.001000129942
2	1807	6.696597303704	0.001000303704
2	1810	6.701058922847	0.000999922847
2	1813	6.761603566027	0.000999566027
2	1816	6.763218709244	0.000999709244
2	1819	6.77666471994	0.00099971994
2	1822	6.782806696975	0.000999696975
2	1827	6.790769374439	0.001000374439
2	1828	6.790966967842	0.000999967842
2	1831	6.818083567871	0.000999567871
2	1834	6.824299484722	0.001000484722
2	1837	6.830992310051	0.001000310051
2	1840	6.835226049506	0.001000049506
2	1843	6.851118271914	0.001000271914
2	1848	6.875002800301	0.000999800301
2	1849	6.875581137928	0.001000137928
2	1852	6.881581158075	0.001000158075
2	1855	6.886870291712	0.001000291712
2	1858	6.905257492884	0.001000492884
2	1863	6.918008060986	0.001000060986
2	1864	6.918518158815	0.001000158815
2	1867	6.931817048739	0.001000048739
2	1870	6.934684093433	0.001000093433
2	1873	6.969945681047	0.000999681047
2	1876	6.972206219307	0.001000219307
2	1879	6.980052135278	0.001000135278
2	1882	6.98158951723	0.00099951723
2	1885	7.00282806051	0.00100006051
2	1888	7.009284985903	0.000999985903
2	1891	7.019901205413	0.001000205413
2	1894	7.025995491515	0.001000491515
2	1897	7.027455140673	0.001000140673
2	1900	7.032362328235	0.001000328235
2	1903	7.051496608485	0.000999608485
2	1906	7.059977218508	0.001000218508
2	1909	7.068653086293	0.001000086293
2	1912	7.077306092694	0.001000092694
2	1915	7.08224684957	0.00099984957
2	1918	7.085992989618	0.000999989618
2	1921	7.120540599384	0.000999599384
2	1924	7.122313451183	0.001000451183
2	1927	7.123883879578	0.000999879578
2	1930	7.128664028806	0.001000028806
2	1933	7.134983436624	0.001000436624
2	1936	7.143526851804	0.000999851804
2	1939	7.152777543267	0.000999543267
2	1942	7.154979286202	0.001000286202
2	1945	7.159525072689	0.001000072689
2	1948	7.184311308267	0.001000308267
2	1951	7.190432452852	0.001000452852
2	1954	7.206106968923	0.000999968923
2	1959	7.237674742261	0.000999742261
2	1960	7.238612227	0.001000227
2	1963	7.264567644009	0.000999644009
2	1966	7.279693865986	0.000999865986
2	1969	7.284990776353	0.000999776353
2	1972	7.298916691332	0.000999691332
2	1975	7.301522281485	0.001000281485
2	1978	7.314546697842	0.000999697842
2	1981	7.317087319167	0.001000319167
2	1984	7.320302280736	0.001000280736
2	1988	7.336074894573	0.000999894573
2	1991	7.349278898491	0.000999898491
2	1995	7.358024560914	0.000999560914
2	1998	7.364568561314	0.000999561314
2	2001	7.371622368927	0.001000368927
2	2007	7.39423045765	0.00100045765
2	2008	7.395083270824	0.001000270824
2	2011	7.404937178595	0.001000178595
2	2014	7.406039029753	0.001000029753
2	2017	7.408744639739	0.000999639739
2	2020	7.412350000208	0.001000000208
2	2023	7.416141700046	0.000999700046
2	2027	7.468798934643	0.000999934643
2	2030	7.48770779206	0.00099979206
2	2033	7.489054366084	0.001000366084
2	2036	7.496396632772	0.000999632772
2	2039	7.504839361947	0.001000361947
2	2042	7.513712516961	0.000999516961
2	2045	7.520853243301	0.001000243301
2	2048	7.522108121379	0.001000121379
2	2052	7.530219424211	0.001000424211
2	2055	7.533365012123	0.001000012123
2	2058	7.538213499053	0.001000499053
2	2062	7.55228703944	0.00100003944
2	2067	7.564956838894	0.000999838894
2	2068	7.565229439968	0.001000439968
2	2071	7.569160080213	0.001000080213
2	2074	7.577582644763	0.000999644763
2	2077	7.640849535818	0.000999535818
2	2080	7.649444243729	0.001000243729
2	2085	7.651779407447	0.001000407447
2	2086	7.652459166291	0.001000166291
2	2093	7.655169022455	0.001000022455
2	2094	7.65594575936	0.00099975936
2	2095	7.656114261222	0.001000261222
2	2098	7.658768209255	0.001000209255
2	2101	7.664935756567	0.000999756567
2	2106	7.698712065768	0.001000065768
2	2107	7.699414586275	0.000999586275
2	2110	7.717877838782	0.000999838782
2	2113	7.728094896651	0.000999896651
2	2116	7.739671466521	0.001000466521
2	2119	7.744672979321	0.000999979321
2	2122	7.74951714978	0.00100014978
2	2125	7.760740891423	0.000999891423
2	2128	7.782347764843	0.000999764843
2	2131	7.804147388228	0.001000388228
2	2134	7.818743638367	0.000999638367
2	2139	7.827380538592	0.000999538592
2	2140	7.828307513309	0.000999513309
2	2143	7.836119105828	0.001000105828
2	2146	7.853355225661	0.001000225661
2	2149	7.858110458613	0.001000458613
2	2152	7.863272601713	0.000999601713
2	2155	7.866969484138	0.001000484138
2	2160	7.872032817172	0.000999817172
2	2161	7.872118654499	0.000999654499
2	2164	7.899625341385	0.001000341385
2	2169	7.914099655274	0.000999655274
2	2170	7.914718429301	0.001000429301
2	2173	7.925243433355	0.001000433355
2	2176	7.929113220586	0.001000220586
2	2179	7.96327820518	0.00100020518
2	2182	7.977467064278	0.001000064278
2	2187	7.992006669962	0.000999669962
2	2188	7.992357702248	0.000999702248
2	2191	7.999368462828	0.001000462828
2	2194	8.006633650255	0.000999650255
2	2197	8.011324560362	0.000999560362
2	2200	8.015795103274	0.001000103274
2	2203	8.03017944314	0.00100044314
2	2206	8.047622776775	0.000999776775
2	2209	8.054925728774	0.000999728774
2	2212	8.06365857632	0.00099957632
2	2215	8.06553726343	0.00100026343
2	2218	8.068907980154	0.000999980154
2	2221	8.076956802723	0.000999802723
2	2224	8.093006341904	0.001000341904
2	2227	8.109099519019	0.000999519019
2	2230	8.128566681267	0.000999681267
2	2233	8.132516031245	0.001000031245
2	2236	8.143833284218	0.001000284218
2	2239	8.148952651232	0.000999651232
2	2242	8.167327959346	0.000999959346
2	2249	8.181501665477	0.000999665477
2	2250	8.181686457174	0.001000457174
2	2251	8.181970092746	0.001000092746
2	2254	8.183922425728	0.001000425728
2	2257	8.192059807548	0.000999807548
2	2260	8.233241957449	0.000999957449
2	2263	8.250905043957	0.001000043957
2	2266	8.253889496902	0.001000496902
2	2269	8.255452973906	0.000999973906
2	2272	8.263247550929	0.000999550929
2	2275	8.276804932974	0.000999932974
2	2278	8.289174049812	0.001000049812
2	2281	8.290203892324	0.000999892324
2	2284	8.301185199548	0.001000199548
2	2287	8.311056158086	0.001000158086
2	2292	8.322366240062	0.001000240062
2	2293	8.322635605836	0.000999605836
2	2296	8.325376388313	0.001000388313
2	2299	8.327284954836	0.000999954836
2	2302	8.329246628005	0.000999628005
2	2305	8.333821600188	0.000999600188
2	2308	8.358366115368	0.001000115368
2	2311	8.380776114713	0.001000114713
2	2314	8.38425161291	0.00099961291
2	2317	8.399397901119	0.000999901119
2	2320	8.418189395521	0.001000395521
2	2325	8.426188321411	0.001000321411
2	2326	8.426946713353	0.000999713353
2	2329	8.469375329136	0.001000329136
2	2332	8.473549774941	0.000999774941
2	2335	8.476586112099	0.001000112099
2	2338	8.479170252872	0.001000252872
2	2343	8.486860366608	0.001000366608
2	2344	8.486933099594	0.001000099594
2	2347	8.492676022229	0.001000022229
2	2350	8.52677044312	0.00100044312
2	2355	8.535462120339	0.001000120339
2	2356	8.535563195217	0.001000195217
2	2359	8.539742782338	0.000999782338
2	2362	8.547518445668	0.001000445668
2	2367	8.574755274829	0.001000274829
2	2368	8.575608649406	0.000999649406
2	2371	8.58863340225	0.00100040225
2	2376	8.602942350878	0.001000350878
2	2377	8.603483230876	0.001000230876
2	2380	8.606546883052	0.000999883052
2	2383	8.625007039565	0.001000039565
2	2388	8.63826423476	0.00100023476
2	2389	8.638744560604	0.000999560604
2	2392	8.647325160958	0.001000160958
2	2395	8.648763094562	0.001000094562
2	2398	8.679285200078	0.001000200078
2	2401	8.687122448672	0.001000448672
2	2404	8.694472598656	0.000999598656
2	2407	8.722657923491	0.000999923491
2	2410	8.742806384408	0.001000384408
2	2413	8.747786060812	0.001000060812
2	2416	8.752278401165	0.001000401165
2	2419	8.753953463351	0.001000463351
2	2422	8.755253518372	0.000999518372
2	2425	8.757669657164	0.000999657164
2	2428	8.783276100503	0.001000100503
2	2431	8.784923950582	0.000999950582
2	2434	8.800610596779	0.000999596779
2	2437	8.805641601538	0.000999601538
2	2440	8.815432353621	0.001000353621
2	2443	8.81921918208	0.00100018208
2	2446	8.841012625419	0.000999625419
2	2449	8.845253600087	0.000999600087
2	2452	8.847453486335	0.001000486335
2	2455	8.856363057739	0.001000057739
2	2458	8.86430818441	0.00100018441
2	2461	8.87008834218	0.00100034218
2	2464	8.888802549475	0.000999549475
2	2467	8.893453357039	0.001000357039
2	2470	8.895449316917	0.001000316917
2	2473	8.923123601288	0.000999601288
2	2476	8.926409570337	0.000999570337
2	2481	8.95966527718	0.00100027718
2	2482	8.9597315019	0.0009995019
2	2485	8.967354571447	0.000999571447
2	2488	8.987873272108	0.001000272108
2	2491	8.991098272497	0.001000272497
2	2494	9.004251709067	0.000999709067
2	2497	9.0064605942	0.0009995942
2	2500	9.011917437983	0.001000437983
2	2503	9.015505588008	0.000999588008
2	2506	9.057906043668	0.001000043668
2	2509	9.077952788631	0.000999788631
2	2512	9.079115054524	0.001000054524
2	2515	9.080588358198	0.001000358198
2	2518	9.083917118749	0.001000118749
2	2521	9.092770980693	0.000999980693
2	2524	9.119247762742	0.000999762742
2	2527	9.129130247911	0.001000247911
2	2530	9.140212028799	0.001000028799
2	2533	9.150152174941	0.001000174941
2	2536	9.155281993258	0.000999993258
2	2539	9.156298007558	0.001000007558
2	2542	9.160003227972	0.001000227972
2	2545	9.162917471326	0.001000471326
2	2550	9.169850520136	0.000999520136
2	2551	9.170207409676	0.001000409676
2	2554	9.17841824542	0.00100024542
2	2557	9.201071652116	0.000999652116
2	2560	9.202328144851	0.001000144851
2	2563	9.221254741422	0.000999741422
2	2566	9.228639435254	0.001000435254
2	2569	9.232401503761	0.000999503761
2	2572	9.236368306794	0.001000306794
2	2575	9.257957045292	0.001000045292
2	2578	9.26909920019	0.00100020019
2	2581	9.270964852578	0.000999852578
2	2584	9.273140008142	0.001000008142
2	2587	9.277276366483	0.001000366483
2	2590	9.291632146225	0.001000146225
2	2593	9.301300614047	0.000999614047
2	2596	9.342529539252	0.000999539252
2	2599	9.358477922996	0.000999922996
2	2604	9.359974339579	0.001000339579
2	2605	9.360814194545	0.001000194545
2	2608	9.373516460365	0.001000460365
2	2611	9.381154354591	0.001000354591
2	2614	9.382648495046	0.001000495046
2	2617	9.390773322943	0.001000322943
2	2620	9.408798151741	0.001000151741
2	2623	9.427226048382	0.001000048382
2	2626	9.437779200054	0.001000200054
2	2629	9.439930887845	0.000999887845
2	2632	9.450732524506	0.000999524506
2	2635	9.463241041288	0.001000041288
2	2638	9.467000201158	0.001000201158
2	2641	9.468497695004	0.000999695004
2	2644	9.513021698525	0.000999698525
2	2647	9.535596222685	0.001000222685
2	2652	9.541179456189	0.001000456189
2	2653	9.541863541795	0.000999541795
2	2656	9.544825938065	0.000999938065
2	2659	9.546061410498	0.001000410498
2	2662	9.548365465177	0.001000465177
2	2665	9.567835776251	0.000999776251
2	2668	9.578590469155	0.001000469155
2	2671	9.581463809405	0.000999809405
2	2674	9.620920868845	0.000999868845
2	2677	9.635249581909	0.000999581909
2	2680	9.641614227345	0.001000227345
2	2683	9.646308564744	0.000999564744
2	2688	9.652931304716	0.001000304716
2	2689	9.653644127956	0.001000127956
2	2692	9.655141221753	0.001000221753
2	2695	9.657339196347	0.001000196347
2	2698	9.66941138478	0.00100038478
2	2703	9.673514903754	0.000999903754
2	2704	9.673958639963	0.000999639963
2	2707	9.67617488203	0.00099988203
2	2710	9.681054275877	0.001000275877
2	2713	9.698313504154	0.000999504154
2	2716	9.714170576537	0.000999576537
2	2719	9.736927013912	0.001000013912
2	2722	9.757306875752	0.000999875752
2	2725	9.760474692562	0.000999692562
2	2728	9.769873035233	0.001000035233
2	2731	9.774217093014	0.001000093014
2	2734	9.77914306086	0.00100006086
2	2737	9.798963108147	0.001000108147
2	2742	9.811554388515	0.001000388515
2	2743	9.812267062766	0.001000062766
2	2748	9.84681558162	0.00099958162
2	2753	9.855843091359	0.001000091359
2	2754	9.855946485043	0.001000485043
2	2757	9.858926795284	0.000999795284
2	2760	9.88100802805	0.00100002805
2	2763	9.888731848189	0.000999848189
2	2766	9.890609557276	0.000999557276
2	2770	9.895866023328	0.001000023328
2	2773	9.897678721277	0.000999721277
2	2776	9.901240549819	0.000999549819
2	2779	9.917288521607	0.000999521607
2	2782	9.925136475963	0.001000475963
2	2785	9.93625617225	0.00100017225
2	2788	9.966994394477	0.001000394477
2	2791	9.978268429078	0.001000429078
2	2794	9.9869000396	0.0010000396
3	3	0.560677898185	0.000999898185
3	6	0.58472648526	0.00100048526
3	9	0.640950763201	0.000999763201
3	12	0.676451755989	0.000999755989
3	15	0.683491732528	0.000999732528
3	18	0.727851454936	0.001000454936
3	21	0.745759279769	0.001000279769
3	24	0.787139338743	0.001000338743
3	27	0.798780498164	0.001000498164
3	30	0.825150895933	0.000999895933

