version 3
run Attack50_record-0-20250915-22:43:50-99410
attr configname Attack50_record
attr datetime 20250915-22:43:50
attr datetimef 20250915-224350
attr experiment Attack50_record
attr inifile run_record.ini
attr iterationvars ""
attr iterationvarsd ""
attr iterationvarsf ""
attr measurement ""
attr network ned.LightIoTNetwork
attr processid 99410
attr repetition 0
attr replication #0
attr resultdir results
attr runnumber 0
attr seedset 102
config **.result-recording-modes all
config **.scalar-recording true
config **.vector-recording true
config output-scalar-file results/delay/Attack50_record_s102.sca
config output-vector-file results/delay/Attack50_record_s102.vec
config record-eventlog false
config seed-set 102
config network ned.LightIoTNetwork
config LightIoTNetwork.numSensorNodes 50
config **.sensor[*].mode "\"Secure\""
config **.fakeNode.enabled true
config **.fakeNode.validMac true
config **.gateway.securityEnabled true
config **.gateway.hmacWindow 3s
config description "Secure Mode Simulation (includes all scenarios)"
config network ned.LightIoTNetwork
config ned-path .
config sim-time-limit 10s
config record-eventlog true
config cmdenv-express-mode false
config network ned.LightIoTNetwork
config sim-time-limit 10s
config output-scalar-file results/secure_output.sca
config output-vector-file results/secure_output.vec
config network LightIoTNetwork
config sim-time-limit 10s
config output-scalar-file results/nosecure_output.sca
config output-vector-file results/nosecure_output.vec
config network LightIoTNetwork
config sim-time-limit 10s
config output-scalar-file results/attack_output.sca
config output-vector-file results/attack_output.vec
config output-scalar-file results/Attack50_record-0.sca
config output-vector-file results/Attack50_record-0.vec
config **.scalar-recording true
config **.vector-recording true
config **.statistic-recording true
config **.result-recording-modes all
config rng-class cMersenneTwister
config num-rngs 1
config seed-set 123
config output-scalar-file results/Attack50_record-0.sca
config output-vector-file results/Attack50_record-0.vec
config **.scalar-recording true
config **.vector-recording true
config **.result-recording-modes all
config **.sensor[*].aesKeyHex "\"00112233445566778899AABBCCDDEEFF\""
config **.gateway.aesKeyHex "\"00112233445566778899AABBCCDDEEFF\""
config **.fakeNode.aesKeyHex "\"00112233445566778899AABBCCDDEEFF\""
config **.sensor[*].sendInterval 0.5s
config **.sensor[*].mode "\"Secure\""
config **.gateway.procDelay 1ms
config **.gateway.hmacWindow 1s
config **.gateway.costForward_mJ 5
config **.gateway.costVerify_mJ 5
config **.gateway.batteryInit_mJ 5000
config **.gateway.securityEnabled true
config **.gateway.checkHmac true
config **.gateway.checkFreshness true
config **.gateway.checkDuplicate true
config **.gateway.duplicateMethod "\"set\""
config **.gateway.bloomBits 16384
config **.gateway.bloomHashes 3
config **.gateway.sbfBits 16384
config **.gateway.sbfHashes 3
config **.gateway.sbfDecay 0.02
config **.fakeNode.enabled false
config **.fakeNode.attackMode 1
config **.fakeNode.replayInterval 2.5s
config **.fakeNode.validMac true
config **.fakeNode.replayId 100000
config **.fakeNode.replayTsUs 500000
config **.fakeNode.dupBurstLen 4
config **.fakeNode.dupBurstGap 200ms
config **.fakeNode.outOfOrderJitter 80ms
config sim-time-limit 10s

vector 0 LightIoTNetwork.cloud e2eDelay_valid ETV
vector 1 LightIoTNetwork.cloud e2eDelay_debug ETV
0	3	0.513639075518	0.001000075518
0	6	0.530383706627	0.000999706627
0	9	0.548488551354	0.000999551354
0	12	0.623417182196	0.001000182196
0	15	0.631928090075	0.001000090075
0	18	0.646126080839	0.001000080839
0	21	0.668248504469	0.000999504469
0	24	0.673306763008	0.000999763008
0	27	0.683410527021	0.000999527021
0	30	0.725930682918	0.000999682918
0	33	0.73247379281	0.00099979281
0	36	0.739266009605	0.001000009605
0	39	0.750070713762	0.000999713762
0	42	0.762620224454	0.001000224454
0	45	0.779156274464	0.001000274464
0	48	0.800281742889	0.000999742889
0	51	0.811206617927	0.000999617927
0	54	0.813144966563	0.000999966563
0	57	0.834446830045	0.000999830045
0	60	0.856822311016	0.001000311016
0	63	0.858931552222	0.000999552222
0	66	0.862162082991	0.001000082991
0	69	0.879749677446	0.000999677446
0	72	0.898557434393	0.001000434393
0	75	0.96360124119	0.00100024119
0	78	0.990022911526	0.000999911526
0	81	0.991198237589	0.001000237589
0	84	0.992747298744	0.001000298744
0	87	0.999389370158	0.001000370158
0	90	1.00661413751	0.00100013751
0	93	1.017861910699	0.000999910699
0	96	1.019950499129	0.001000499129
0	99	1.029343753889	0.000999753889
0	102	1.032265325891	0.001000325891
0	105	1.037779312486	0.001000312486
0	108	1.049316861968	0.000999861968
0	111	1.052657348638	0.001000348638
0	114	1.079739391873	0.001000391873
0	117	1.098681581974	0.000999581974
0	120	1.103775121108	0.001000121108
0	125	1.147747724549	0.000999724549
0	126	1.148091148631	0.001000148631
0	129	1.155317873157	0.000999873157
0	134	1.16342662745	0.00099962745
0	135	1.163597023998	0.001000023998
0	138	1.176986904185	0.000999904185
0	141	1.180970689723	0.000999689723
0	144	1.209461768785	0.000999768785
0	147	1.227679658261	0.000999658261
0	150	1.230694212624	0.001000212624
0	153	1.231740264524	0.001000264524
0	156	1.245793381845	0.001000381845
0	159	1.251882329186	0.001000329186
0	162	1.267832039109	0.001000039109
0	165	1.283005117159	0.001000117159
0	168	1.291842921752	0.000999921752
0	171	1.295846544741	0.000999544741
0	174	1.297661046334	0.001000046334
0	177	1.299168635321	0.000999635321
0	180	1.310017668711	0.000999668711
0	183	1.311591465794	0.001000465794
0	186	1.312986836605	0.000999836605
0	189	1.315126881328	0.000999881328
0	192	1.331222577648	0.000999577648
0	195	1.347018118668	0.001000118668
0	198	1.355641710455	0.000999710455
0	201	1.357398746371	0.000999746371
0	204	1.359569376869	0.001000376869
0	207	1.37999877294	0.00099977294
0	210	1.383701393264	0.001000393264
0	213	1.395409887493	0.000999887493
0	216	1.424564252211	0.001000252211
0	219	1.454169729561	0.000999729561
0	222	1.459857280622	0.001000280622
0	225	1.482918568886	0.000999568886
0	228	1.484029431873	0.001000431873
0	233	1.487960739596	0.000999739596
0	234	1.488493892293	0.000999892293
0	237	1.495471014734	0.001000014734
0	240	1.497621112106	0.001000112106
0	243	1.536457160463	0.001000160463
0	246	1.539159665884	0.000999665884
0	249	1.543198928259	0.000999928259
0	252	1.547755643678	0.000999643678
0	255	1.550839050393	0.001000050393
0	258	1.564405683055	0.000999683055
0	261	1.570803303526	0.001000303526
0	264	1.600187634652	0.000999634652
0	267	1.615216270228	0.001000270228
0	270	1.626840111729	0.001000111729
0	273	1.628911859471	0.000999859471
0	276	1.631049203639	0.001000203639
0	279	1.637201677564	0.000999677564
0	282	1.644777622678	0.000999622678
0	285	1.654208222147	0.001000222147
0	288	1.660172890614	0.000999890614
0	291	1.711983598977	0.000999598977
0	296	1.740645796758	0.000999796758
0	297	1.741400920622	0.000999920622
0	300	1.751128641678	0.000999641678
0	303	1.754660760681	0.000999760681
0	306	1.760101533051	0.000999533051
0	309	1.764851478882	0.001000478882
0	316	1.76779502395	0.00100002395
0	317	1.767838859045	0.000999859045
0	318	1.767993514262	0.000999514262
0	321	1.793212073878	0.001000073878
0	324	1.801418234407	0.001000234407
0	329	1.813347425963	0.001000425963
0	330	1.813819555378	0.000999555378
0	333	1.816675031208	0.001000031208
0	336	1.823252491791	0.001000491791
0	339	1.832757221301	0.001000221301
0	342	1.841870890301	0.000999890301
0	345	1.848272492689	0.001000492689
0	348	1.854593818914	0.000999818914
0	351	1.856318010878	0.001000010878
0	354	1.882933122617	0.001000122617
0	357	1.886162517125	0.000999517125
0	360	1.888979811849	0.000999811849
0	365	1.895955633255	0.000999633255
0	366	1.896392450388	0.001000450388
0	369	1.921314707118	0.000999707118
0	372	1.962508270214	0.001000270214
0	375	1.963934815698	0.000999815698
0	378	1.974060034448	0.001000034448
0	381	1.978140648872	0.000999648872
0	384	1.999483749851	0.000999749851
0	387	2.008127761888	0.000999761888
0	390	2.0101398963	0.0009998963
0	393	2.014902260619	0.001000260619
0	396	2.03515615221	0.00100015221
0	399	2.051083968696	0.000999968696
0	402	2.052713104755	0.001000104755
0	405	2.054078121366	0.001000121366
0	408	2.065010740071	0.000999740071
0	411	2.081417613662	0.000999613662
0	414	2.093109003243	0.001000003243
0	417	2.111646765935	0.000999765935
0	422	2.124775781924	0.000999781924
0	423	2.124898463533	0.001000463533
0	426	2.129817154165	0.001000154165
0	429	2.1337247367	0.0009997367
0	432	2.137226586415	0.000999586415
0	435	2.146589893939	0.000999893939
0	439	2.199363972525	0.000999972525
0	442	2.204744656406	0.000999656406
0	445	2.227864225371	0.001000225371
0	448	2.231237562326	0.000999562326
0	452	2.232648512184	0.000999512184
0	453	2.23294677542	1.73294677542
0	456	2.239900458766	0.001000458766
0	459	2.24276485804	0.00099985804
0	462	2.261696293949	0.001000293949
0	465	2.277305166748	0.001000166748
0	468	2.29800964978	0.00099964978
0	475	2.309686622466	0.000999622466
0	476	2.309696849016	0.000999849016
0	477	2.309869859553	0.000999859553
0	482	2.313948455173	0.001000455173
0	485	2.319021457433	0.001000457433
0	488	2.326504563632	0.000999563632
0	491	2.33464551114	0.00099951114
0	494	2.341295160888	0.001000160888
0	497	2.345965486322	0.001000486322
0	500	2.359155794046	0.000999794046
0	503	2.363428582972	0.000999582972
0	506	2.368766382662	0.001000382662
0	509	2.373928037005	0.001000037005
0	512	2.375475707882	0.000999707882
0	515	2.377312141353	0.001000141353
0	518	2.389835532498	0.000999532498
0	522	2.402458173244	0.001000173244
0	526	2.418580890982	0.000999890982
0	529	2.437314701777	0.000999701777
0	532	2.444024938344	0.000999938344
0	535	2.466313965828	0.000999965828
0	538	2.467602423833	0.001000423833
0	541	2.488393250153	0.001000250153
0	544	2.493313192598	0.001000192598
0	547	2.499413857958	0.000999857958
0	552	2.505747405834	0.001000405834
0	553	2.5067298742	0.0009998742
0	556	2.51362529185	0.00100029185
0	559	2.51510946832	0.00100046832
0	562	2.518913989421	0.000999989421
0	565	2.575120755796	0.000999755796
0	568	2.584580379514	0.001000379514
0	571	2.596494250952	0.001000250952
0	574	2.606794644635	0.000999644635
0	577	2.614119654962	0.000999654962
0	580	2.627681938348	0.000999938348
0	583	2.638832125974	0.001000125974
0	586	2.643657199898	0.001000199898
0	589	2.652841006871	0.001000006871
0	592	2.669404821143	0.000999821143
0	595	2.691182331949	0.001000331949
0	600	2.718225182987	0.001000182987
0	601	2.719115428951	0.001000428951
0	604	2.725332925608	0.000999925608
0	607	2.727492869389	0.000999869389
0	610	2.744337745615	0.000999745615
0	615	2.747962009673	0.001000009673
0	616	2.748150418209	0.001000418209
0	619	2.749153222865	0.001000222865
0	622	2.756579153123	0.001000153123
0	627	2.778632667101	0.000999667101
0	628	2.779444376308	0.001000376308
0	631	2.814667112566	0.001000112566
0	634	2.818367018783	0.001000018783
0	637	2.839998660841	0.000999660841
0	640	2.847675765328	0.000999765328
0	643	2.850682006798	0.001000006798
0	648	2.857160986937	0.000999986937
0	649	2.858085649505	0.000999649505
0	652	2.859805332729	0.001000332729
0	655	2.861865322641	0.001000322641
0	660	2.8638647784	0.0009997784
0	661	2.86482370065	0.00099970065
0	664	2.868675463204	0.001000463204
0	667	2.874319137306	0.001000137306
0	670	2.88603704567	0.00100004567
0	673	2.907563250279	0.001000250279
0	676	2.921010764291	0.000999764291
0	679	2.927720870077	0.000999870077
0	682	2.93769028373	0.00100028373
0	687	2.966392541606	0.000999541606
0	688	2.966837040474	0.001000040474
0	691	2.98334200857	0.00100000857
0	694	2.99175583769	0.00099983769
0	697	3.010646595269	0.000999595269
0	700	3.015305057423	0.001000057423
0	705	3.0206392179	0.0010002179
0	706	3.021350799709	0.000999799709
0	709	3.029686112747	0.001000112747
0	712	3.045121260965	0.001000260965
0	715	3.051795381399	0.001000381399
0	718	3.095335834518	0.000999834518
0	723	3.105696631082	0.000999631082
0	724	3.105827060387	0.001000060387
0	727	3.108380255264	0.001000255264
0	730	3.119307273136	0.001000273136
0	733	3.120364454294	0.001000454294
0	736	3.126200236565	0.001000236565
0	739	3.150704258028	0.001000258028
0	742	3.167625383404	0.001000383404
0	745	3.171309660048	0.000999660048
0	748	3.198694896557	0.000999896557
0	751	3.21024289599	0.00099989599
0	754	3.221830355608	0.001000355608
0	757	3.231386854243	0.000999854243
0	760	3.234987882197	0.000999882197
0	763	3.251299962679	0.000999962679
0	766	3.263598829624	0.000999829624
0	769	3.271016217093	0.001000217093
0	772	3.27865237256	0.00100037256
0	775	3.283777019498	0.001000019498
0	778	3.288030222081	0.001000222081
0	781	3.292917051445	0.001000051445
0	784	3.316827441425	0.001000441425
0	787	3.320106518896	0.000999518896
0	790	3.324394078948	0.001000078948
0	793	3.327422054856	0.001000054856
0	796	3.34256178753	0.00099978753
0	799	3.344871767075	0.000999767075
0	802	3.357167933298	0.000999933298
0	805	3.366931312227	0.001000312227
0	808	3.372366916924	0.000999916924
0	811	3.374861041338	0.001000041338
0	814	3.381000303174	0.001000303174
0	817	3.397805238235	0.001000238235
0	822	3.399305989942	0.000999989942
0	823	3.39937885527	0.00099985527
0	828	3.400569395557	0.001000395557
0	829	3.400591813423	0.000999813423
0	832	3.418085893289	0.000999893289
0	835	3.456032045277	0.001000045277
0	838	3.465159811008	0.000999811008
0	843	3.480971629707	0.000999629707
0	844	3.481841684807	0.000999684807
0	847	3.490185496233	0.001000496233
0	850	3.513963152793	0.001000152793
0	853	3.515049162855	0.001000162855
0	856	3.528610422647	0.001000422647
0	859	3.556520966788	0.000999966788
0	862	3.562917045828	0.001000045828
0	865	3.570065810088	0.000999810088
0	868	3.571401402144	0.001000402144
0	871	3.588509975186	0.000999975186
0	874	3.595816418574	0.001000418574
0	877	3.618516546556	0.000999546556
0	880	3.63082347065	0.00100047065
0	883	3.647263216901	0.001000216901
0	886	3.651329636619	0.000999636619
0	889	3.665517110167	0.001000110167
0	892	3.692348890635	0.000999890635
0	897	3.700483320351	0.001000320351
0	898	3.700694075808	0.001000075808
0	901	3.718670696368	0.000999696368
0	904	3.72319500544	0.00100000544
0	907	3.725865775578	0.000999775578
0	910	3.727522738579	0.000999738579
0	913	3.755307871405	0.000999871405
0	916	3.761125223501	0.001000223501
0	919	3.762158156558	0.001000156558
0	922	3.768229846587	0.000999846587
0	925	3.776707051484	0.001000051484
0	928	3.780677043366	0.001000043366
0	931	3.782594251609	0.001000251609
0	934	3.784835418848	0.001000418848
0	937	3.797086561098	0.000999561098
0	940	3.804898911784	0.000999911784
0	943	3.812020395672	0.001000395672
0	946	3.846919288718	0.001000288718
0	951	3.852894681459	0.000999681459
0	952	3.852940848655	0.000999848655
0	955	3.876306533627	0.000999533627
0	960	3.877375227539	0.001000227539
0	961	3.87757396209	0.00099996209
0	964	3.885523319547	0.001000319547
0	967	3.887601593462	0.000999593462
0	970	3.889412847439	0.000999847439
0	973	3.892871021035	0.001000021035
0	976	3.899307891633	0.000999891633
0	979	3.927169951749	0.000999951749
0	982	3.954451352636	0.001000352636
0	985	3.959349457616	0.001000457616
0	988	3.96149006863	0.00100006863
0	991	3.964010380533	0.001000380533
0	994	3.970150802842	0.000999802842
0	997	3.979525311522	0.001000311522
0	1000	3.986689943004	0.000999943004
0	1003	4.012101789237	0.000999789237
0	1006	4.053819110965	0.001000110965
0	1009	4.054886349266	0.001000349266
0	1012	4.068895081942	0.001000081942
0	1015	4.073898465255	0.001000465255
0	1018	4.075839935707	0.000999935707
0	1021	4.088329721218	0.000999721218
0	1024	4.100248967785	0.000999967785
0	1027	4.134215800253	0.000999800253
0	1030	4.139401544513	0.000999544513
0	1033	4.152977478293	0.001000478293
0	1036	4.154976222501	0.001000222501
0	1039	4.156099434056	0.001000434056
0	1042	4.172288481401	0.001000481401
0	1045	4.191733160567	0.001000160567
0	1048	4.198241733549	0.000999733549
0	1051	4.22043317661	0.00100017661
0	1054	4.222552196984	0.001000196984
0	1057	4.242442406038	0.001000406038
0	1060	4.247108661592	0.000999661592
0	1063	4.255107358679	0.001000358679
0	1066	4.262651764508	0.000999764508
0	1069	4.285853045666	0.001000045666
0	1072	4.290572827613	0.000999827613
0	1075	4.291695135505	0.001000135505
0	1078	4.293771304003	0.001000304003
0	1081	4.303696601535	0.000999601535
0	1084	4.30539902211	0.00100002211
0	1087	4.307251858268	0.000999858268
0	1090	4.338030851794	0.000999851794
0	1093	4.340565479779	0.001000479779
0	1096	4.352834901935	0.000999901935
0	1099	4.355524705536	0.000999705536
0	1104	4.361898467665	0.001000467665
0	1105	4.362460059696	0.001000059696
0	1108	4.366663567674	0.000999567674
0	1111	4.381004508955	0.000999508955
0	1114	4.384396054037	0.001000054037
0	1117	4.407801087177	0.001000087177
0	1124	4.413187027605	0.001000027605
0	1125	4.4134002069	0.0010002069
0	1126	4.414167330064	0.001000330064
0	1129	4.415887878648	0.000999878648
0	1132	4.418479978455	0.000999978455
0	1135	4.425040398538	0.001000398538
0	1138	4.439282568659	0.000999568659
0	1141	4.466139835584	0.000999835584
0	1144	4.482192862172	0.000999862172
0	1147	4.483846047613	0.001000047613
0	1150	4.485053768845	0.000999768845
0	1153	4.502727774297	0.000999774297
0	1156	4.515792352635	0.001000352635
0	1159	4.524106972547	0.000999972547
0	1162	4.531029392661	0.001000392661
0	1165	4.571710612787	0.000999612787
0	1168	4.596089007751	0.001000007751
0	1171	4.610551619645	0.000999619645
0	1174	4.612944780685	0.000999780685
0	1177	4.620741585921	0.000999585921
0	1180	4.637709868675	0.000999868675
0	1183	4.648461915225	0.000999915225
0	1186	4.665547336474	0.001000336474
0	1189	4.67538207548	0.00100007548
0	1193	4.707290967017	0.000999967017
0	1196	4.713091785413	0.000999785413
0	1199	4.716413507004	0.000999507004
0	1202	4.717684250837	0.001000250837
0	1205	4.720867876032	0.000999876032
0	1208	4.73102269119	0.00099969119
0	1213	4.736630541295	0.000999541295
0	1216	4.737618179852	0.001000179852
0	1217	4.737922627082	0.000999627082
0	1220	4.751387296081	0.001000296081
0	1224	4.780444057214	0.001000057214
0	1230	4.793720530114	0.000999530114
0	1231	4.794288881355	0.000999881355
0	1234	4.805697486107	0.001000486107
0	1239	4.813949281978	0.001000281978
0	1240	4.814537651557	0.000999651557
0	1243	4.820428509637	0.000999509637
0	1247	4.839866736368	0.000999736368
0	1250	4.850759104685	0.001000104685
0	1253	4.874905998934	0.000999998934
0	1256	4.881771846628	0.000999846628
0	1259	4.88330293307	0.00099993307
0	1262	4.888136789946	0.000999789946
0	1266	4.893986124684	0.001000124684
0	1271	4.89600069325	0.00099969325
0	1272	4.896149993663	0.000999993663
0	1275	4.901618411879	0.001000411879
0	1278	4.911951427837	0.001000427837
0	1281	4.914892143685	0.001000143685
0	1284	4.926529596279	0.000999596279
0	1288	4.93358764951	0.00099964951
0	1293	4.935774332657	0.001000332657
0	1294	4.936743879923	0.000999879923
0	1297	4.964423894904	0.000999894904
0	1300	4.981037592584	0.000999592584
0	1303	4.982123335171	0.001000335171
0	1306	5.003767002023	0.001000002023
0	1311	5.011026557068	0.000999557068
0	1312	5.011552521259	0.000999521259
0	1315	5.035837674023	0.000999674023
0	1318	5.04947027366	0.00100027366
0	1323	5.075724104489	0.001000104489
0	1324	5.075823092483	0.001000092483
0	1327	5.103206758293	0.000999758293
0	1330	5.117974971583	0.000999971583
0	1333	5.129397091896	0.001000091896
0	1336	5.139252003933	0.001000003933
0	1339	5.169964868318	0.000999868318
0	1342	5.171275592316	0.000999592316
0	1347	5.172430464298	0.001000464298
0	1348	5.172574224741	0.001000224741
0	1351	5.197413892297	0.000999892297
0	1354	5.200860892631	0.000999892631
0	1357	5.216781300282	0.001000300282
0	1362	5.218839553253	0.000999553253
0	1363	5.218964617676	0.000999617676
0	1366	5.237356231641	0.001000231641
0	1369	5.247711554798	0.000999554798
0	1372	5.261453718807	0.000999718807
0	1375	5.262735088891	0.001000088891
0	1378	5.274154797521	0.000999797521
0	1381	5.289378881291	0.000999881291
0	1384	5.293575599859	0.000999599859
0	1387	5.309906857273	0.000999857273
0	1390	5.316896301857	0.001000301857
0	1393	5.327842042641	0.001000042641
0	1396	5.331588453847	0.001000453847
0	1399	5.351685645267	0.000999645267
0	1402	5.360595887248	0.000999887248
0	1407	5.374422794742	0.000999794742
0	1408	5.374801302118	0.001000302118
0	1411	5.377231422905	0.001000422905
0	1414	5.381314954348	0.000999954348
0	1417	5.394901305716	0.001000305716
0	1420	5.409937464701	0.001000464701
0	1423	5.411508281737	0.001000281737
0	1426	5.41956525985	0.00100025985
0	1431	5.427541609853	0.000999609853
0	1432	5.427564220454	0.001000220454
0	1435	5.429807543451	0.000999543451
0	1440	5.43165945499	0.00100045499
0	1441	5.432545802206	0.000999802206
0	1444	5.441909686942	0.000999686942
0	1447	5.44408294577	0.00099994577
0	1450	5.46288679526	0.00099979526
0	1453	5.467951884958	0.000999884958
0	1456	5.472407415275	0.001000415275
0	1459	5.476655775959	0.000999775959
0	1462	5.522568360971	0.001000360971
0	1465	5.540688347303	0.001000347303
0	1468	5.54752251841	0.00099951841
0	1471	5.563656315672	0.001000315672
0	1474	5.583696718885	0.000999718885
0	1477	5.601627472718	0.001000472718
0	1480	5.620839729089	0.000999729089
0	1483	5.624478757124	0.000999757124
0	1486	5.631604043695	0.001000043695
0	1489	5.652684136689	0.001000136689
0	1492	5.665582483773	0.001000483773
0	1495	5.670857172993	0.001000172993
1	3	0.513639075518	0.001000075518
1	6	0.530383706627	0.000999706627
1	9	0.548488551354	0.000999551354
1	12	0.623417182196	0.001000182196
1	15	0.631928090075	0.001000090075
1	18	0.646126080839	0.001000080839
1	21	0.668248504469	0.000999504469
1	24	0.673306763008	0.000999763008
1	27	0.683410527021	0.000999527021
1	30	0.725930682918	0.000999682918

