version 3
run Attack20_record-0-20250915-22:43:51-99450
attr configname Attack20_record
attr datetime 20250915-22:43:51
attr datetimef 20250915-224351
attr experiment Attack20_record
attr inifile run_record.ini
attr iterationvars ""
attr iterationvarsd ""
attr iterationvarsf ""
attr measurement ""
attr network ned.LightIoTNetwork
attr processid 99450
attr repetition 0
attr replication #0
attr resultdir results
attr runnumber 0
attr seedset 104
config **.result-recording-modes all
config **.scalar-recording true
config **.vector-recording true
config output-scalar-file results/delay/Attack20_record_s104.sca
config output-vector-file results/delay/Attack20_record_s104.vec
config record-eventlog false
config seed-set 104
config network ned.LightIoTNetwork
config LightIoTNetwork.numSensorNodes 20
config **.sensor[*].mode "\"Secure\""
config **.fakeNode.enabled true
config **.fakeNode.validMac true
config **.gateway.securityEnabled true
config **.gateway.hmacWindow 1s
config description "Secure Mode Simulation (includes all scenarios)"
config network ned.LightIoTNetwork
config ned-path .
config sim-time-limit 10s
config record-eventlog true
config cmdenv-express-mode false
config network ned.LightIoTNetwork
config sim-time-limit 10s
config output-scalar-file results/secure_output.sca
config output-vector-file results/secure_output.vec
config network LightIoTNetwork
config sim-time-limit 10s
config output-scalar-file results/nosecure_output.sca
config output-vector-file results/nosecure_output.vec
config network LightIoTNetwork
config sim-time-limit 10s
config output-scalar-file results/attack_output.sca
config output-vector-file results/attack_output.vec
config output-scalar-file results/Attack20_record-0.sca
config output-vector-file results/Attack20_record-0.vec
config **.scalar-recording true
config **.vector-recording true
config **.statistic-recording true
config **.result-recording-modes all
config rng-class cMersenneTwister
config num-rngs 1
config seed-set 123
config output-scalar-file results/Attack20_record-0.sca
config output-vector-file results/Attack20_record-0.vec
config **.scalar-recording true
config **.vector-recording true
config **.result-recording-modes all
config **.sensor[*].aesKeyHex "\"00112233445566778899AABBCCDDEEFF\""
config **.gateway.aesKeyHex "\"00112233445566778899AABBCCDDEEFF\""
config **.fakeNode.aesKeyHex "\"00112233445566778899AABBCCDDEEFF\""
config **.sensor[*].sendInterval 0.5s
config **.sensor[*].mode "\"Secure\""
config **.gateway.procDelay 1ms
config **.gateway.hmacWindow 1s
config **.gateway.costForward_mJ 5
config **.gateway.costVerify_mJ 5
config **.gateway.batteryInit_mJ 5000
config **.gateway.securityEnabled true
config **.gateway.checkHmac true
config **.gateway.checkFreshness true
config **.gateway.checkDuplicate true
config **.gateway.duplicateMethod "\"set\""
config **.gateway.bloomBits 16384
config **.gateway.bloomHashes 3
config **.gateway.sbfBits 16384
config **.gateway.sbfHashes 3
config **.gateway.sbfDecay 0.02
config **.fakeNode.enabled false
config **.fakeNode.attackMode 1
config **.fakeNode.replayInterval 2.5s
config **.fakeNode.validMac true
config **.fakeNode.replayId 100000
config **.fakeNode.replayTsUs 500000
config **.fakeNode.dupBurstLen 4
config **.fakeNode.dupBurstGap 200ms
config **.fakeNode.outOfOrderJitter 80ms
config sim-time-limit 10s

vector 0 LightIoTNetwork.cloud e2eDelay_valid ETV
vector 1 LightIoTNetwork.cloud e2eDelay_debug ETV
0	3	0.59412301199	0.00100001199
0	6	0.625341413612	0.001000413612
0	9	0.648920624586	0.000999624586
0	12	0.68670673652	0.00099973652
0	15	0.697108672302	0.000999672302
0	18	0.729298356989	0.001000356989
0	21	0.799474579817	0.000999579817
0	26	0.895754340872	0.001000340872
0	27	0.896687266253	0.001000266253
0	30	0.906439523747	0.000999523747
0	33	0.930482975509	0.000999975509
0	36	0.986825479729	0.001000479729
0	39	1.051003502262	0.000999502262
0	42	1.077683720481	0.000999720481
0	45	1.096455294708	0.001000294708
0	48	1.124610218987	0.001000218987
0	51	1.152420118287	0.001000118287
0	54	1.169552571908	0.000999571908
0	57	1.189162829377	0.000999829377
0	60	1.261325221694	0.001000221694
0	63	1.273137310356	0.001000310356
0	66	1.283668410568	0.001000410568
0	69	1.30849336211	0.00100036211
0	74	1.346607556566	0.000999556566
0	75	1.347217285865	0.001000285865
0	78	1.349634943366	0.000999943366
0	81	1.380107888159	0.000999888159
0	84	1.389884768076	0.000999768076
0	87	1.453613114077	0.001000114077
0	90	1.478630904387	0.000999904387
0	93	1.496904538082	0.000999538082
0	96	1.500026739039	0.000999739039
0	99	1.55930616632	0.00100016632
0	102	1.57062008141	0.00100008141
0	105	1.591320493793	0.001000493793
0	108	1.620756608922	0.000999608922
0	111	1.630567167605	0.001000167605
0	114	1.690496668847	0.000999668847
0	117	1.695512079261	0.001000079261
0	120	1.723645439021	0.001000439021
0	123	1.730563351651	0.001000351651
0	126	1.776068533374	0.000999533374
0	129	1.800553798419	0.000999798419
0	132	1.810849038324	0.001000038324
0	135	1.865425567072	0.000999567072
0	138	1.866746809845	0.000999809845
0	141	1.871644242759	0.001000242759
0	144	1.916983174112	0.001000174112
0	147	1.920366369723	0.001000369723
0	150	1.958897499017	0.001000499017
0	153	1.992962584504	0.000999584504
0	156	2.022135996329	0.000999996329
0	159	2.047133317379	0.001000317379
0	162	2.051350774964	0.000999774964
0	165	2.067945629939	0.000999629939
0	168	2.092036330862	0.001000330862
0	171	2.132966992444	0.000999992444
0	174	2.161908409906	0.001000409906
0	177	2.172557900706	0.000999900706
0	180	2.201210159272	0.001000159272
0	183	2.225947705958	0.000999705958
0	186	2.236566382133	0.001000382133
0	189	2.263195098889	0.001000098889
0	192	2.271327728894	0.000999728894
0	195	2.328010149718	0.001000149718
0	198	2.332368133146	0.001000133146
0	201	2.367268614493	0.000999614493
0	204	2.372364057344	0.001000057344
0	207	2.387711163283	0.001000163283
0	210	2.414790172175	0.001000172175
0	213	2.536252570105	0.000999570105
0	216	2.538703922647	0.000999922647
0	219	2.557073749112	0.000999749112
0	222	2.562077466258	0.001000466258
0	225	2.597486500883	0.000999500883
0	229	2.609034321665	0.001000321665
0	231	2.624890571175	2.124890571175
0	234	2.635167785337	0.000999785337
0	237	2.639604532531	0.000999532531
0	241	2.652332664071	0.000999664071
0	244	2.712720890296	0.000999890296
0	247	2.719544048094	0.001000048094
0	250	2.744320393702	0.001000393702
0	253	2.752015479839	0.001000479839
0	256	2.753228825796	0.000999825796
0	260	2.789821834698	0.000999834698
0	265	2.85765057085	0.00099957085
0	268	2.874144133715	0.001000133715
0	271	2.892853984562	0.000999984562
0	274	2.914673773151	0.000999773151
0	277	2.950325788696	0.000999788696
0	280	3.01915103807	0.00100003807
0	283	3.034955403231	0.001000403231
0	286	3.036687362915	0.001000362915
0	289	3.046231188997	0.001000188997
0	292	3.075294661451	0.000999661451
0	295	3.091964739863	0.000999739863
0	298	3.114332812023	0.000999812023
0	301	3.117526594944	0.000999594944
0	304	3.145141706102	0.000999706102
0	309	3.206273194029	0.001000194029
0	310	3.206281322496	0.001000322496
0	313	3.223339559906	0.000999559906
0	316	3.235434018004	0.001000018004
0	319	3.24753675328	0.00099975328
0	322	3.256705158343	0.001000158343
0	325	3.357995871989	0.000999871989
0	328	3.378090804255	0.000999804255
0	331	3.388886900944	0.000999900944
0	334	3.395490905758	0.000999905758
0	337	3.472794213168	0.001000213168
0	340	3.522294266498	0.001000266498
0	343	3.523908245423	0.001000245423
0	346	3.532706684246	0.000999684246
0	349	3.558164090406	0.001000090406
0	352	3.566282095713	0.001000095713
0	355	3.569079227302	0.001000227302
0	358	3.595111278839	0.001000278839
0	361	3.641228981641	0.000999981641
0	364	3.646292630676	0.000999630676
0	367	3.693619029898	0.001000029898
0	370	3.709615369024	0.001000369024
0	373	3.748747366084	0.001000366084
0	376	3.758910418976	0.001000418976
0	379	3.765499744937	0.000999744937
0	382	3.775035806231	0.000999806231
0	385	3.817732817469	0.000999817469
0	388	3.846097520971	0.000999520971
0	391	3.922087150112	0.001000150112
0	394	3.927132435305	0.001000435305
0	397	3.963778061838	0.001000061838
0	400	4.004583287122	0.001000287122
0	403	4.014399046264	0.001000046264
0	406	4.051599594391	0.000999594391
0	411	4.069816233356	0.001000233356
0	412	4.070706371776	0.001000371776
0	415	4.078942395141	0.001000395141
0	418	4.081529799988	0.000999799988
0	421	4.114015732122	0.000999732122
0	424	4.115702214534	0.001000214534
0	427	4.216552326245	0.001000326245
0	430	4.223171134222	0.001000134222
0	433	4.266519374328	0.001000374328
0	436	4.285216862079	0.000999862079
0	439	4.29135158155	0.00099958155
0	444	4.311426626751	0.000999626751
0	445	4.311509540164	0.000999540164
0	448	4.37134090471	0.00099990471
0	451	4.404425503755	0.000999503755
0	454	4.430673320241	0.001000320241
0	457	4.449740006075	0.001000006075
0	460	4.481395544437	0.000999544437
0	463	4.516844966052	0.000999966052
0	466	4.559135525487	0.000999525487
0	469	4.560832822974	0.000999822974
0	474	4.575563739891	0.000999739891
0	475	4.576344206812	0.001000206812
0	478	4.584276687678	0.000999687678
0	481	4.603286070842	0.001000070842
0	484	4.618661485169	0.001000485169
0	487	4.692613752255	0.000999752255
0	490	4.696302793896	0.000999793896
0	493	4.734151406886	0.001000406886
0	496	4.744187462725	0.001000462725
0	499	4.756272607249	0.000999607249
0	502	4.791431637807	0.000999637807
0	505	4.822269727708	0.000999727708
0	508	4.851364070525	0.001000070525
0	511	4.905126205831	0.001000205831
0	514	4.958326813531	0.000999813531
0	517	4.959878186927	0.001000186927
0	520	4.981425998033	0.000999998033
0	523	5.018053053389	0.001000053389
0	526	5.019621074618	0.001000074618
0	529	5.048245371294	0.001000371294
0	532	5.060387699026	0.000999699026
0	535	5.090043433964	0.001000433964
0	539	5.106580878514	0.000999878514
0	544	5.112830865755	0.000999865755
0	545	5.113757353904	0.001000353904
0	549	5.187968055203	0.001000055203
0	552	5.190039324573	0.001000324573
0	557	5.224905624519	0.000999624519
0	560	5.235307491663	0.001000491663
0	563	5.26868139489	0.00100039489
0	567	5.316488416026	0.001000416026
0	571	5.336930643185	0.000999643185
0	574	5.36430518052	0.00100018052
0	577	5.404563162172	0.001000162172
0	580	5.444561161496	0.001000161496
0	583	5.460068629099	0.000999629099
0	586	5.476645480608	0.001000480608
0	589	5.523857035138	0.001000035138
0	592	5.532473180279	0.001000180279
0	595	5.535283240604	0.001000240604
0	598	5.540775856375	0.000999856375
0	601	5.555966053902	0.001000053902
0	604	5.573099734587	0.000999734587
0	607	5.635560711775	0.000999711775
0	610	5.647793159703	0.001000159703
0	613	5.691612720419	0.000999720419
0	616	5.697489044929	0.001000044929
0	619	5.70817416543	0.00100016543
0	622	5.749181209783	0.001000209783
0	625	5.75180545817	0.00100045817
0	628	5.802031008317	0.001000008317
0	631	5.804397359722	0.001000359722
0	634	5.869017464946	0.001000464946
0	637	5.888374257832	0.001000257832
0	640	5.943899326678	0.001000326678
0	643	5.948941600461	0.000999600461
0	646	5.95798324265	0.00100024265
0	649	6.005065954103	0.000999954103
0	652	6.007044986355	0.000999986355
0	657	6.040761913195	0.000999913195
0	658	6.041256650722	0.000999650722
0	663	6.047131015428	0.001000015428
0	664	6.047970749367	0.000999749367
0	667	6.093817092943	0.001000092943
0	670	6.130385428224	0.001000428224
0	673	6.204606704203	0.000999704203
0	676	6.206176218879	0.001000218879
0	679	6.214442924711	0.000999924711
0	682	6.234602924992	0.000999924992
0	685	6.270323657547	0.000999657547
0	688	6.292831963975	0.000999963975
0	691	6.352079622237	0.000999622237
0	694	6.408423572219	0.000999572219
0	697	6.41002612377	0.00100012377
0	700	6.434964580833	0.000999580833
0	703	6.457486777076	0.000999777076
0	706	6.481317548709	0.000999548709
0	709	6.491320574585	0.000999574585
0	712	6.49711100962	0.00100000962
0	715	6.527459804829	0.000999804829
0	718	6.546068389525	0.001000389525
0	721	6.558871161098	0.001000161098
0	724	6.587216913047	0.000999913047
0	727	6.616282865893	0.000999865893
0	730	6.679415818117	0.000999818117
0	733	6.717936178342	0.001000178342
0	736	6.72014287333	0.00099987333
0	739	6.724505476697	0.001000476697
0	742	6.73474238098	0.00100038098
0	745	6.791788769419	0.000999769419
0	748	6.803498522937	0.000999522937
0	751	6.87392214036	0.00100014036
0	754	6.888948015077	0.001000015077
0	757	6.89022141837	0.00100041837
0	760	6.941453698672	0.000999698672
0	763	6.98000790521	0.00099990521
0	768	6.990732055226	0.001000055226
0	769	6.99122661671	0.00099961671
0	772	6.997858930983	0.000999930983
0	775	7.046979700121	0.000999700121
0	778	7.050633337975	0.001000337975
0	781	7.087370727117	0.000999727117
0	784	7.100821817595	0.000999817595
0	787	7.107446895213	0.000999895213
0	790	7.167753318161	0.001000318161
0	793	7.222474082931	0.001000082931
0	796	7.227525954155	0.000999954155
0	801	7.254530181689	0.001000181689
0	802	7.254691595024	0.000999595024
0	805	7.265341537143	0.000999537143
0	808	7.291793758048	0.000999758048
0	811	7.34223593492	0.00099993492
0	814	7.34518383725	0.00099983725
0	817	7.399241436295	0.001000436295
0	820	7.4060723698	0.0010003698
0	823	7.461447917414	0.000999917414
0	826	7.483727507758	0.000999507758
0	829	7.495452161761	0.001000161761
0	832	7.537341549478	0.000999549478
0	835	7.538639759271	0.000999759271
0	838	7.561889540217	0.000999540217
0	841	7.567259354935	0.001000354935
0	844	7.57247197898	0.00099997898
0	848	7.645251566054	0.000999566054
0	852	7.672887097368	0.001000097368
0	856	7.688470791419	0.000999791419
0	859	7.718154399935	0.001000399935
0	862	7.746397872083	0.000999872083
0	865	7.762422953822	0.000999953822
0	869	7.790317827811	0.000999827811
0	872	7.806693650082	0.000999650082
0	877	7.831281932117	0.000999932117
0	880	7.855992565466	0.000999565466
0	883	7.887786502576	0.000999502576
0	886	7.914620525064	0.000999525064
0	889	7.940096910508	0.000999910508
0	892	7.950442014983	0.001000014983
0	895	8.028876657341	0.000999657341
0	898	8.031459708464	0.000999708464
0	901	8.045691008538	0.001000008538
0	904	8.052528306561	0.001000306561
0	907	8.05366438981	0.00100038981
0	910	8.080301134427	0.001000134427
0	913	8.139393481751	0.001000481751
0	916	8.192049632849	0.000999632849
0	919	8.203867892339	0.000999892339
0	922	8.20489419999	0.00100019999
0	925	8.219482433004	0.001000433004
0	928	8.253869629764	0.000999629764
0	931	8.274501789197	0.000999789197
0	934	8.310781577624	0.000999577624
0	937	8.311810209647	0.001000209647
0	940	8.322925098752	0.001000098752
0	943	8.346629281201	0.001000281201
0	946	8.390144927195	0.000999927195
0	949	8.426508911303	0.000999911303
0	952	8.470639712316	0.000999712316
0	955	8.481457692244	0.000999692244
0	958	8.530427533107	0.000999533107
0	961	8.542091166156	0.001000166156
0	964	8.561661755432	0.000999755432
0	967	8.566481918863	0.000999918863
0	970	8.570400865328	0.000999865328
0	973	8.597193466638	0.001000466638
0	976	8.657418485661	0.001000485661
0	979	8.670323704462	0.000999704462
0	982	8.711033618237	0.000999618237
0	985	8.718248520092	0.000999520092
0	988	8.719676099367	0.001000099367
0	991	8.738482092273	0.001000092273
0	994	8.766307362307	0.001000362307
0	997	8.780927737754	0.000999737754
0	1000	8.840297617226	0.000999617226
0	1003	8.861453438363	0.001000438363
0	1006	8.868689576514	0.000999576514
0	1009	8.943784478399	0.001000478399
0	1012	8.958657171693	0.001000171693
0	1015	8.989696077675	0.001000077675
0	1018	9.028917651366	0.000999651366
0	1021	9.063218499043	0.001000499043
0	1024	9.072703318646	0.001000318646
0	1027	9.075642028123	0.001000028123
0	1030	9.078654441212	0.001000441212
0	1033	9.128653271006	0.001000271006
0	1036	9.139046332868	0.001000332868
0	1039	9.162318561412	0.000999561412
0	1042	9.204707186319	0.001000186319
0	1045	9.221374366315	0.001000366315
0	1048	9.230186620097	0.000999620097
0	1051	9.255628530352	0.000999530352
0	1054	9.259416453585	0.001000453585
0	1057	9.315335671253	0.000999671253
0	1060	9.324117476328	0.001000476328
0	1063	9.347339441626	0.001000441626
0	1066	9.362510701037	0.000999701037
0	1069	9.425533416028	0.001000416028
0	1072	9.471239791762	0.000999791762
0	1075	9.473443311336	0.001000311336
0	1078	9.515801130443	0.001000130443
0	1081	9.53144810302	0.00100010302
0	1084	9.569087771116	0.000999771116
0	1087	9.579202616679	0.000999616679
0	1090	9.591505841932	0.000999841932
0	1093	9.605510661935	0.000999661935
0	1096	9.628396240621	0.001000240621
0	1099	9.654402118688	0.001000118688
0	1102	9.675712312338	0.001000312338
0	1105	9.709236092864	0.001000092864
0	1108	9.712548568028	0.000999568028
0	1111	9.743022202512	0.001000202512
0	1114	9.781300655679	0.000999655679
0	1117	9.816258523821	0.000999523821
0	1120	9.82584609636	0.00100009636
0	1123	9.827883406776	0.001000406776
0	1126	9.843731318017	0.001000318017
0	1129	9.906025185249	0.001000185249
0	1132	9.955544985551	0.000999985551
0	1135	9.9826013264	0.0010003264
0	1138	9.992307012619	0.001000012619
1	3	0.59412301199	0.00100001199
1	6	0.625341413612	0.001000413612
1	9	0.648920624586	0.000999624586
1	12	0.68670673652	0.00099973652
1	15	0.697108672302	0.000999672302
1	18	0.729298356989	0.001000356989
1	21	0.799474579817	0.000999579817
1	26	0.895754340872	0.001000340872
1	27	0.896687266253	0.001000266253
1	30	0.906439523747	0.000999523747

