version 3
run Attack5_record-0-20250915-22:43:50-99393
attr configname Attack5_record
attr datetime 20250915-22:43:50
attr datetimef 20250915-224350
attr experiment Attack5_record
attr inifile run_record.ini
attr iterationvars ""
attr iterationvarsd ""
attr iterationvarsf ""
attr measurement ""
attr network ned.LightIoTNetwork
attr processid 99393
attr repetition 0
attr replication #0
attr resultdir results
attr runnumber 0
attr seedset 101
config **.result-recording-modes all
config **.scalar-recording true
config **.vector-recording true
config output-scalar-file results/delay/Attack5_record_s101.sca
config output-vector-file results/delay/Attack5_record_s101.vec
config record-eventlog false
config seed-set 101
config network ned.LightIoTNetwork
config LightIoTNetwork.numSensorNodes 5
config **.sensor[*].mode "\"Secure\""
config **.fakeNode.enabled true
config **.fakeNode.validMac true
config **.gateway.securityEnabled true
config **.gateway.hmacWindow 1s
config description "Secure Mode Simulation (includes all scenarios)"
config network ned.LightIoTNetwork
config ned-path .
config sim-time-limit 10s
config record-eventlog true
config cmdenv-express-mode false
config network ned.LightIoTNetwork
config sim-time-limit 10s
config output-scalar-file results/secure_output.sca
config output-vector-file results/secure_output.vec
config network LightIoTNetwork
config sim-time-limit 10s
config output-scalar-file results/nosecure_output.sca
config output-vector-file results/nosecure_output.vec
config network LightIoTNetwork
config sim-time-limit 10s
config output-scalar-file results/attack_output.sca
config output-vector-file results/attack_output.vec
config output-scalar-file results/Attack5_record-0.sca
config output-vector-file results/Attack5_record-0.vec
config **.scalar-recording true
config **.vector-recording true
config **.statistic-recording true
config **.result-recording-modes all
config rng-class cMersenneTwister
config num-rngs 1
config seed-set 123
config output-scalar-file results/Attack5_record-0.sca
config output-vector-file results/Attack5_record-0.vec
config **.scalar-recording true
config **.vector-recording true
config **.result-recording-modes all
config **.sensor[*].aesKeyHex "\"00112233445566778899AABBCCDDEEFF\""
config **.gateway.aesKeyHex "\"00112233445566778899AABBCCDDEEFF\""
config **.fakeNode.aesKeyHex "\"00112233445566778899AABBCCDDEEFF\""
config **.sensor[*].sendInterval 0.5s
config **.sensor[*].mode "\"Secure\""
config **.gateway.procDelay 1ms
config **.gateway.hmacWindow 1s
config **.gateway.costForward_mJ 5
config **.gateway.costVerify_mJ 5
config **.gateway.batteryInit_mJ 5000
config **.gateway.securityEnabled true
config **.gateway.checkHmac true
config **.gateway.checkFreshness true
config **.gateway.checkDuplicate true
config **.gateway.duplicateMethod "\"set\""
config **.gateway.bloomBits 16384
config **.gateway.bloomHashes 3
config **.gateway.sbfBits 16384
config **.gateway.sbfHashes 3
config **.gateway.sbfDecay 0.02
config **.fakeNode.enabled false
config **.fakeNode.attackMode 1
config **.fakeNode.replayInterval 2.5s
config **.fakeNode.validMac true
config **.fakeNode.replayId 100000
config **.fakeNode.replayTsUs 500000
config **.fakeNode.dupBurstLen 4
config **.fakeNode.dupBurstGap 200ms
config **.fakeNode.outOfOrderJitter 80ms
config sim-time-limit 10s

vector 0 LightIoTNetwork.cloud e2eDelay_valid ETV
vector 1 LightIoTNetwork.cloud e2eDelay_debug ETV
0	3	0.529474226361	0.001000226361
0	6	0.996626392658	0.001000392658
0	9	1.017398630803	0.000999630803
0	12	1.053540185628	0.001000185628
0	15	1.071667583728	0.000999583728
0	18	1.446759431971	0.001000431971
0	21	1.453684359159	0.001000359159
0	24	1.535926328924	0.001000328924
0	27	1.556951273231	0.001000273231
0	30	1.605057270079	0.001000270079
0	33	1.925693661323	0.000999661323
0	36	1.934380980789	0.000999980789
0	39	2.043641996685	0.000999996685
0	42	2.081676126015	0.001000126015
0	45	2.096312581187	0.000999581187
0	48	2.447848047571	0.001000047571
0	51	2.462269772704	0.000999772704
0	54	2.512635891441	0.000999891441
0	57	2.60173534036	0.00100034036
0	60	2.620882514189	0.000999514189
0	63	2.905416237352	0.001000237352
0	66	2.947482968167	0.000999968167
0	70	3.045201152306	0.001000152306
0	72	3.062686276338	2.562686276338
0	75	3.069924581003	0.000999581003
0	78	3.07343220613	0.00100020613
0	85	3.433976413448	0.001000413448
0	88	3.456506097967	0.001000097967
0	91	3.572672823606	0.000999823606
0	94	3.580279422783	0.001000422783
0	97	3.621223396762	0.001000396762
0	100	3.956875689303	0.000999689303
0	103	3.967666048904	0.001000048904
0	106	4.050296706449	0.000999706449
0	109	4.124907849448	0.000999849448
0	112	4.139754029597	0.001000029597
0	115	4.450165343982	0.001000343982
0	118	4.46945279599	0.00099979599
0	123	4.579479339252	0.001000339252
0	124	4.579756302851	0.001000302851
0	127	4.635404275801	0.001000275801
0	130	4.913952267658	0.001000267658
0	133	5.002120610395	0.000999610395
0	136	5.04438026091	0.00100026091
0	139	5.048176082106	0.001000082106
0	142	5.184836066166	0.001000066166
0	145	5.424215416446	0.001000416446
0	149	5.504187150065	0.001000150065
0	153	5.553507760888	0.000999760888
0	156	5.556055035976	0.001000035976
0	161	5.679004653172	0.000999653172
0	166	5.947697322069	0.001000322069
0	169	6.010609280503	0.001000280503
0	172	6.034979165437	0.001000165437
0	175	6.046354819344	0.000999819344
0	178	6.151469533938	0.000999533938
0	181	6.43341975638	0.00099975638
0	184	6.528579206368	0.001000206368
0	187	6.56761457757	0.00099957757
0	190	6.58026683654	0.00099983654
0	193	6.63583269152	0.00099969152
0	196	6.948799197164	0.001000197164
0	199	7.06508918784	0.00100018784
0	202	7.099868733414	0.000999733414
0	205	7.101560909393	0.000999909393
0	208	7.113294607935	0.000999607935
0	211	7.452615342636	0.001000342636
0	214	7.516608634171	0.000999634171
0	217	7.573009255341	0.001000255341
0	220	7.585116737777	0.000999737777
0	223	7.642115670863	0.000999670863
0	226	7.976893383403	0.001000383403
0	229	7.982341179529	0.001000179529
0	235	8.105267467698	0.001000467698
0	239	8.109262389595	0.001000389595
0	242	8.132487462858	0.001000462858
0	247	8.515941370114	0.001000370114
0	250	8.518756720375	0.000999720375
0	255	8.575692702456	0.000999702456
0	256	8.576245575164	0.000999575164
0	259	8.583416410816	0.001000410816
0	262	9.012801640199	0.000999640199
0	265	9.036078483633	0.001000483633
0	268	9.074456224822	0.001000224822
0	271	9.087968372925	0.001000372925
0	274	9.10148418767	0.00100018767
0	277	9.51727579932	0.00099979932
0	280	9.538233302881	0.001000302881
0	283	9.542308042337	0.001000042337
0	286	9.566104613825	0.000999613825
0	289	9.624449493085	0.001000493085
0	292	9.98966946008	0.00100046008
1	3	0.529474226361	0.001000226361
1	6	0.996626392658	0.001000392658
1	9	1.017398630803	0.000999630803
1	12	1.053540185628	0.001000185628
1	15	1.071667583728	0.000999583728
1	18	1.446759431971	0.001000431971
1	21	1.453684359159	0.001000359159
1	24	1.535926328924	0.001000328924
1	27	1.556951273231	0.001000273231
1	30	1.605057270079	0.001000270079

