version 3
run Attack20_record-0-20250915-22:43:50-99409
attr configname Attack20_record
attr datetime 20250915-22:43:50
attr datetimef 20250915-224350
attr experiment Attack20_record
attr inifile run_record.ini
attr iterationvars ""
attr iterationvarsd ""
attr iterationvarsf ""
attr measurement ""
attr network ned.LightIoTNetwork
attr processid 99409
attr repetition 0
attr replication #0
attr resultdir results
attr runnumber 0
attr seedset 102
config **.result-recording-modes all
config **.scalar-recording true
config **.vector-recording true
config output-scalar-file results/delay/Attack20_record_s102.sca
config output-vector-file results/delay/Attack20_record_s102.vec
config record-eventlog false
config seed-set 102
config network ned.LightIoTNetwork
config LightIoTNetwork.numSensorNodes 20
config **.sensor[*].mode "\"Secure\""
config **.fakeNode.enabled true
config **.fakeNode.validMac true
config **.gateway.securityEnabled true
config **.gateway.hmacWindow 1s
config description "Secure Mode Simulation (includes all scenarios)"
config network ned.LightIoTNetwork
config ned-path .
config sim-time-limit 10s
config record-eventlog true
config cmdenv-express-mode false
config network ned.LightIoTNetwork
config sim-time-limit 10s
config output-scalar-file results/secure_output.sca
config output-vector-file results/secure_output.vec
config network LightIoTNetwork
config sim-time-limit 10s
config output-scalar-file results/nosecure_output.sca
config output-vector-file results/nosecure_output.vec
config network LightIoTNetwork
config sim-time-limit 10s
config output-scalar-file results/attack_output.sca
config output-vector-file results/attack_output.vec
config output-scalar-file results/Attack20_record-0.sca
config output-vector-file results/Attack20_record-0.vec
config **.scalar-recording true
config **.vector-recording true
config **.statistic-recording true
config **.result-recording-modes all
config rng-class cMersenneTwister
config num-rngs 1
config seed-set 123
config output-scalar-file results/Attack20_record-0.sca
config output-vector-file results/Attack20_record-0.vec
config **.scalar-recording true
config **.vector-recording true
config **.result-recording-modes all
config **.sensor[*].aesKeyHex "\"00112233445566778899AABBCCDDEEFF\""
config **.gateway.aesKeyHex "\"00112233445566778899AABBCCDDEEFF\""
config **.fakeNode.aesKeyHex "\"00112233445566778899AABBCCDDEEFF\""
config **.sensor[*].sendInterval 0.5s
config **.sensor[*].mode "\"Secure\""
config **.gateway.procDelay 1ms
config **.gateway.hmacWindow 1s
config **.gateway.costForward_mJ 5
config **.gateway.costVerify_mJ 5
config **.gateway.batteryInit_mJ 5000
config **.gateway.securityEnabled true
config **.gateway.checkHmac true
config **.gateway.checkFreshness true
config **.gateway.checkDuplicate true
config **.gateway.duplicateMethod "\"set\""
config **.gateway.bloomBits 16384
config **.gateway.bloomHashes 3
config **.gateway.sbfBits 16384
config **.gateway.sbfHashes 3
config **.gateway.sbfDecay 0.02
config **.fakeNode.enabled false
config **.fakeNode.attackMode 1
config **.fakeNode.replayInterval 2.5s
config **.fakeNode.validMac true
config **.fakeNode.replayId 100000
config **.fakeNode.replayTsUs 500000
config **.fakeNode.dupBurstLen 4
config **.fakeNode.dupBurstGap 200ms
config **.fakeNode.outOfOrderJitter 80ms
config sim-time-limit 10s

vector 0 LightIoTNetwork.cloud e2eDelay_valid ETV
vector 1 LightIoTNetwork.cloud e2eDelay_debug ETV
0	3	0.668248504469	0.000999504469
0	6	0.673306763008	0.000999763008
0	9	0.73247379281	0.00099979281
0	12	0.739266009605	0.001000009605
0	15	0.800281742889	0.000999742889
0	18	0.811206617927	0.000999617927
0	21	0.813144966563	0.000999966563
0	24	0.858931552222	0.000999552222
0	27	0.898557434393	0.001000434393
0	30	0.96360124119	0.00100024119
0	33	0.990022911526	0.000999911526
0	36	0.992747298744	0.001000298744
0	39	1.017861910699	0.000999910699
0	42	1.029343753889	0.000999753889
0	45	1.079739391873	0.001000391873
0	48	1.098681581974	0.000999581974
0	51	1.176986904185	0.000999904185
0	54	1.183737700362	0.000999700362
0	57	1.207507062307	0.001000062307
0	60	1.212747751757	0.000999751757
0	63	1.216944578429	0.000999578429
0	66	1.231740264524	0.001000264524
0	69	1.278097370335	0.001000370335
0	72	1.297322826226	0.000999826226
0	75	1.310017668711	0.000999668711
0	78	1.313706380314	0.001000380314
0	81	1.363070042477	0.001000042477
0	84	1.389990698801	0.000999698801
0	87	1.446945924195	0.000999924195
0	90	1.454169729561	0.000999729561
0	93	1.494642348657	0.001000348657
0	96	1.505505776334	0.000999776334
0	99	1.522693596896	0.000999596896
0	102	1.52792278882	0.00099978882
0	105	1.534488247008	0.001000247008
0	108	1.561774390982	0.001000390982
0	111	1.645979418582	0.001000418582
0	114	1.684678635187	0.000999635187
0	117	1.704819546174	0.000999546174
0	120	1.712843841872	0.000999841872
0	123	1.717913486621	0.001000486621
0	126	1.736991716781	0.000999716781
0	129	1.763679601437	0.000999601437
0	132	1.782510737003	0.000999737003
0	135	1.807600338337	0.001000338337
0	138	1.838794613233	0.000999613233
0	141	1.864897770177	0.000999770177
0	144	1.894268726137	0.000999726137
0	147	1.923937503946	0.000999503946
0	150	1.980392643297	0.000999643297
0	153	1.989302349416	0.001000349416
0	156	2.006470371433	0.001000371433
0	159	2.012901382193	0.001000382193
0	162	2.063396034692	0.001000034692
0	165	2.068102630622	0.000999630622
0	168	2.083530846656	0.000999846656
0	171	2.13304878727	0.00099978727
0	174	2.169500167784	0.001000167784
0	177	2.174798499629	0.001000499629
0	180	2.214592817215	0.000999817215
0	183	2.216133906435	0.000999906435
0	186	2.22307065646	0.00099965646
0	189	2.274237445718	0.001000445718
0	192	2.280730824335	0.000999824335
0	195	2.306344909453	0.000999909453
0	198	2.317551558883	0.000999558883
0	201	2.345534074002	0.001000074002
0	204	2.388659309222	0.001000309222
0	207	2.396250640902	0.000999640902
0	210	2.461593374842	0.001000374842
0	213	2.480969078652	0.001000078652
0	217	2.49132640711	0.00100040711
0	219	2.514197408067	2.014197408067
0	222	2.516853098011	0.001000098011
0	225	2.520480310754	0.001000310754
0	229	2.591129047236	0.001000047236
0	232	2.592995281725	0.001000281725
0	235	2.625879981554	0.000999981554
0	238	2.635266410093	0.001000410093
0	241	2.659671437926	0.001000437926
0	247	2.741470923995	0.000999923995
0	250	2.743936513178	0.000999513178
0	253	2.753959207724	0.001000207724
0	256	2.755734323383	0.001000323383
0	259	2.784053357713	0.001000357713
0	262	2.80502275743	0.00099975743
0	265	2.839038000441	0.001000000441
0	268	2.873325600404	0.000999600404
0	271	2.893064360016	0.001000360016
0	274	2.926480918399	0.000999918399
0	277	2.947557394951	0.001000394951
0	280	2.964270557742	0.000999557742
0	283	2.973034523962	0.000999523962
0	286	3.048792249848	0.001000249848
0	289	3.060794166755	0.001000166755
0	292	3.10108063137	0.00099963137
0	295	3.129050041151	0.001000041151
0	300	3.147925458754	0.001000458754
0	301	3.148235559789	0.000999559789
0	304	3.203222233104	0.001000233104
0	307	3.205658954195	0.000999954195
0	310	3.213126567517	0.000999567517
0	313	3.244986255443	0.001000255443
0	316	3.251285350927	0.001000350927
0	319	3.25953089739	0.00099989739
0	324	3.343277581408	0.000999581408
0	325	3.344121565855	0.000999565855
0	328	3.3930959851	0.0009999851
0	331	3.401189970479	0.000999970479
0	334	3.408605766714	0.000999766714
0	337	3.450499737588	0.000999737588
0	340	3.456857287161	0.001000287161
0	343	3.501798294716	0.001000294716
0	346	3.569775205664	0.001000205664
0	349	3.572155995596	0.000999995596
0	352	3.588233972572	0.000999972572
0	355	3.613334871361	0.000999871361
0	358	3.615380537346	0.000999537346
0	361	3.619753656931	0.000999656931
0	364	3.703157170092	0.001000170092
0	367	3.719533786061	0.000999786061
0	370	3.727994698354	0.000999698354
0	373	3.737642645928	0.000999645928
0	376	3.75149271437	0.00099971437
0	379	3.772931354934	0.001000354934
0	382	3.823797118174	0.001000118174
0	385	3.857474792071	0.000999792071
0	388	3.872675145463	0.001000145463
0	391	3.896006275246	0.001000275246
0	394	3.908014440582	0.001000440582
0	397	3.943535572802	0.000999572802
0	400	3.981078300857	0.001000300857
0	403	4.022300675767	0.000999675767
0	406	4.024103994433	0.000999994433
0	409	4.073040626778	0.000999626778
0	412	4.081715507292	0.000999507292
0	415	4.109321475423	0.001000475423
0	418	4.114148487872	0.001000487872
0	421	4.119778565782	0.000999565782
0	424	4.192104284114	0.001000284114
0	427	4.214411701679	0.000999701679
0	430	4.250747376378	0.001000376378
0	433	4.259394659683	0.000999659683
0	436	4.264689536439	0.000999536439
0	439	4.277413132902	0.001000132902
0	442	4.2873553409	0.0010003409
0	447	4.345222124596	0.001000124596
0	448	4.34557888943	0.00099988943
0	451	4.371456978958	0.000999978958
0	454	4.441024655917	0.000999655917
0	457	4.485393562773	0.000999562773
0	460	4.511094436375	0.001000436375
0	463	4.538775224355	0.001000224355
0	466	4.541707217459	0.001000217459
0	469	4.545201118662	0.001000118662
0	472	4.606594899388	0.000999899388
0	475	4.617400559713	0.000999559713
0	478	4.618848994861	0.000999994861
0	481	4.650449927453	0.000999927453
0	484	4.707434369878	0.001000369878
0	487	4.718999776475	0.000999776475
0	490	4.730799068604	0.001000068604
0	493	4.749042135127	0.001000135127
0	496	4.755684450827	0.001000450827
0	499	4.775687670404	0.000999670404
0	502	4.793708789021	0.000999789021
0	505	4.825617979722	0.000999979722
0	508	4.839102023839	0.001000023839
0	511	4.893211377386	0.001000377386
0	514	4.940039638057	0.000999638057
0	517	4.944830351531	0.001000351531
0	521	4.99794927726	0.00100027726
0	524	5.009825891441	0.000999891441
0	528	5.036487214732	0.001000214732
0	531	5.052143870247	0.000999870247
0	534	5.077006035249	0.001000035249
0	537	5.084848253241	0.001000253241
0	542	5.108245704928	0.000999704928
0	545	5.118279948178	0.000999948178
0	548	5.168346556973	0.000999556973
0	551	5.171651529309	0.000999529309
0	556	5.240909084329	0.001000084329
0	561	5.275727651732	0.000999651732
0	562	5.276695102546	0.001000102546
0	565	5.285299895703	0.000999895703
0	568	5.295306459813	0.001000459813
0	571	5.307698104367	0.001000104367
0	574	5.355980891638	0.000999891638
0	577	5.362125876545	0.000999876545
0	580	5.437072583566	0.000999583566
0	583	5.472217872785	0.000999872785
0	586	5.489767636684	0.000999636684
0	589	5.524196663986	0.000999663986
0	592	5.53611585875	0.00099985875
0	595	5.562582706052	0.000999706052
0	598	5.570059530786	0.000999530786
0	601	5.58928554009	0.00099954009
0	604	5.590813772496	0.000999772496
0	607	5.604734072438	0.001000072438
0	610	5.630221032652	0.001000032652
0	613	5.639003399898	0.001000399898
0	616	5.744663469817	0.001000469817
0	619	5.760637917043	0.000999917043
0	622	5.7883834488	0.0010004488
0	625	5.794652021163	0.001000021163
0	628	5.826630575722	0.000999575722
0	631	5.833216763171	0.000999763171
0	634	5.860829376498	0.001000376498
0	637	5.886159081148	0.001000081148
0	640	5.927729191305	0.001000191305
0	643	5.959782560448	0.000999560448
0	646	6.000658191018	0.001000191018
0	649	6.026052600145	0.000999600145
0	652	6.034782763498	0.000999763498
0	655	6.041467326994	0.001000326994
0	658	6.043429396231	0.001000396231
0	661	6.046441248757	0.001000248757
0	664	6.093716431735	0.001000431735
0	667	6.113917095166	0.001000095166
0	670	6.137140291322	0.001000291322
0	673	6.186734299244	0.001000299244
0	676	6.206070374066	0.001000374066
0	679	6.27637750178	0.00099950178
0	682	6.294053758238	0.000999758238
0	685	6.316643885988	0.000999885988
0	688	6.321340998356	0.000999998356
0	691	6.338926330904	0.001000330904
0	694	6.348108575237	0.000999575237
0	697	6.364746097567	0.001000097567
0	700	6.442305835732	0.000999835732
0	703	6.485989831992	0.000999831992
0	706	6.490083893945	0.000999893945
0	709	6.524645575787	0.000999575787
0	712	6.538066583545	0.000999583545
0	715	6.540499742746	0.000999742746
0	718	6.545901889516	0.000999889516
0	721	6.547168851713	0.000999851713
0	724	6.563264561025	0.000999561025
0	727	6.620964153296	0.001000153296
0	730	6.643529714666	0.000999714666
0	733	6.651924667855	0.000999667855
0	736	6.713582938674	0.000999938674
0	739	6.746247989335	0.000999989335
0	742	6.804831481279	0.001000481279
0	745	6.809452281472	0.001000281472
0	748	6.821976921172	0.000999921172
0	751	6.847982533601	0.000999533601
0	754	6.857446958591	0.000999958591
0	757	6.862327177473	0.001000177473
0	760	6.976929632365	0.000999632365
0	763	6.980189081676	0.001000081676
0	766	6.990103599404	0.000999599404
0	769	7.01142969306	0.00099969306
0	772	7.022327730314	0.000999730314
0	775	7.026915141241	0.001000141241
0	778	7.046526802911	0.000999802911
0	781	7.063071161973	0.001000161973
0	784	7.079513866454	0.000999866454
0	787	7.108674933434	0.000999933434
0	790	7.160305106499	0.001000106499
0	793	7.191425325068	0.001000325068
0	796	7.194279403563	0.001000403563
0	799	7.202489729831	0.000999729831
0	802	7.256835222054	0.001000222054
0	807	7.321777121442	0.001000121442
0	808	7.322250625236	0.000999625236
0	811	7.341885808739	0.000999808739
0	814	7.348249597289	0.000999597289
0	817	7.38003138122	0.00100038122
0	820	7.441877653216	0.000999653216
0	823	7.447014000523	0.001000000523
0	827	7.495017767021	0.000999767021
0	830	7.50104001865	0.00100001865
0	834	7.513896554031	0.000999554031
0	837	7.525564282293	0.001000282293
0	840	7.549122456344	0.001000456344
0	843	7.576376527197	0.000999527197
0	847	7.612460678559	0.000999678559
0	850	7.628940458642	0.001000458642
0	854	7.643845100513	0.001000100513
0	857	7.657533185019	0.001000185019
0	862	7.717705466247	0.001000466247
0	865	7.737977365963	0.001000365963
0	868	7.739648566158	0.000999566158
0	871	7.778867106883	0.001000106883
0	874	7.823701561569	0.000999561569
0	877	7.832386916528	0.000999916528
0	880	7.88809564577	0.00099964577
0	883	7.905160781274	0.000999781274
0	886	7.968410752339	0.000999752339
0	889	7.97987193747	0.00099993747
0	892	7.983522285823	0.001000285823
0	895	7.987552623403	0.000999623403
0	898	8.011422947908	0.000999947908
0	901	8.037142316809	0.001000316809
0	904	8.060829354286	0.001000354286
0	907	8.067556644882	0.000999644882
0	910	8.086588613036	0.000999613036
0	913	8.114133717607	0.000999717607
0	916	8.116700450563	0.001000450563
0	919	8.13903805476	0.00100005476
0	922	8.195390729955	0.000999729955
0	925	8.198210299083	0.001000299083
0	928	8.282610098175	0.001000098175
0	931	8.311370567347	0.000999567347
0	934	8.312374893019	0.000999893019
0	937	8.35594647571	0.00100047571
0	940	8.392035262473	0.001000262473
0	943	8.423170760971	0.000999760971
0	946	8.43500754789	0.00099954789
0	949	8.441068449592	0.001000449592
0	952	8.464984411255	0.001000411255
0	955	8.483524187514	0.001000187514
0	958	8.498455145813	0.001000145813
0	961	8.563720455135	0.001000455135
0	964	8.589310118392	0.001000118392
0	969	8.591049911127	0.000999911127
0	972	8.59157960487	0.00099960487
0	973	8.592511545516	0.000999545516
0	976	8.604233529627	0.000999529627
0	979	8.645437957695	0.000999957695
0	982	8.660954347764	0.001000347764
0	985	8.736980247193	0.001000247193
0	988	8.740689618532	0.000999618532
0	991	8.825297782898	0.000999782898
0	994	8.828748065814	0.001000065814
0	997	8.854775747564	0.000999747564
0	1000	8.889547135051	0.001000135051
0	1003	8.908963581547	0.000999581547
0	1006	8.939440097101	0.001000097101
0	1009	8.968376740858	0.000999740858
0	1012	8.975529381329	0.001000381329
0	1015	9.008549452014	0.001000452014
0	1018	9.037604889481	0.000999889481
0	1021	9.038858669761	0.000999669761
0	1024	9.046984963118	0.000999963118
0	1027	9.051937450258	0.001000450258
0	1030	9.11311878776	0.00099978776
0	1033	9.117813915666	0.000999915666
0	1038	9.128147185779	0.001000185779
0	1039	9.128948207827	0.001000207827
0	1042	9.153864785795	0.000999785795
0	1045	9.224114781826	0.000999781826
0	1048	9.283260996566	0.000999996566
0	1051	9.348992672006	0.000999672006
0	1054	9.35109104684	0.00100004684
0	1057	9.385320554348	0.000999554348
0	1060	9.389021094446	0.001000094446
0	1063	9.414269113795	0.001000113795
0	1066	9.448375982256	0.000999982256
0	1069	9.46232560505	0.00099960505
0	1072	9.511855659539	0.000999659539
0	1075	9.532074966257	0.000999966257
0	1080	9.548424047998	0.001000047998
0	1081	9.549363958277	0.000999958277
0	1084	9.552584068428	0.001000068428
0	1087	9.583432003808	0.001000003808
0	1090	9.595764659112	0.000999659112
0	1093	9.620139614258	0.000999614258
0	1096	9.63111550603	0.00099950603
0	1099	9.654746821265	0.000999821265
0	1102	9.66766426477	0.00100026477
0	1105	9.712248269746	0.001000269746
0	1108	9.798120434997	0.001000434997
0	1111	9.837710598905	0.000999598905
0	1114	9.839158124337	0.001000124337
0	1117	9.866813594475	0.000999594475
0	1120	9.868738711717	0.000999711717
0	1123	9.899367468501	0.001000468501
0	1126	9.960418041586	0.001000041586
0	1129	9.967854062373	0.001000062373
0	1133	9.991305552119	0.000999552119
1	3	0.668248504469	0.000999504469
1	6	0.673306763008	0.000999763008
1	9	0.73247379281	0.00099979281
1	12	0.739266009605	0.001000009605
1	15	0.800281742889	0.000999742889
1	18	0.811206617927	0.000999617927
1	21	0.813144966563	0.000999966563
1	24	0.858931552222	0.000999552222
1	27	0.898557434393	0.001000434393
1	30	0.96360124119	0.00100024119

