version 3
run Attack20_record-0-20250915-22:43:50-99395
attr configname Attack20_record
attr datetime 20250915-22:43:50
attr datetimef 20250915-224350
attr experiment Attack20_record
attr inifile run_record.ini
attr iterationvars ""
attr iterationvarsd ""
attr iterationvarsf ""
attr measurement ""
attr network ned.LightIoTNetwork
attr processid 99395
attr repetition 0
attr replication #0
attr resultdir results
attr runnumber 0
attr seedset 101
config **.result-recording-modes all
config **.scalar-recording true
config **.vector-recording true
config output-scalar-file results/delay/Attack20_record_s101.sca
config output-vector-file results/delay/Attack20_record_s101.vec
config record-eventlog false
config seed-set 101
config network ned.LightIoTNetwork
config LightIoTNetwork.numSensorNodes 20
config **.sensor[*].mode "\"Secure\""
config **.fakeNode.enabled true
config **.fakeNode.validMac true
config **.gateway.securityEnabled true
config **.gateway.hmacWindow 1s
config description "Secure Mode Simulation (includes all scenarios)"
config network ned.LightIoTNetwork
config ned-path .
config sim-time-limit 10s
config record-eventlog true
config cmdenv-express-mode false
config network ned.LightIoTNetwork
config sim-time-limit 10s
config output-scalar-file results/secure_output.sca
config output-vector-file results/secure_output.vec
config network LightIoTNetwork
config sim-time-limit 10s
config output-scalar-file results/nosecure_output.sca
config output-vector-file results/nosecure_output.vec
config network LightIoTNetwork
config sim-time-limit 10s
config output-scalar-file results/attack_output.sca
config output-vector-file results/attack_output.vec
config output-scalar-file results/Attack20_record-0.sca
config output-vector-file results/Attack20_record-0.vec
config **.scalar-recording true
config **.vector-recording true
config **.statistic-recording true
config **.result-recording-modes all
config rng-class cMersenneTwister
config num-rngs 1
config seed-set 123
config output-scalar-file results/Attack20_record-0.sca
config output-vector-file results/Attack20_record-0.vec
config **.scalar-recording true
config **.vector-recording true
config **.result-recording-modes all
config **.sensor[*].aesKeyHex "\"00112233445566778899AABBCCDDEEFF\""
config **.gateway.aesKeyHex "\"00112233445566778899AABBCCDDEEFF\""
config **.fakeNode.aesKeyHex "\"00112233445566778899AABBCCDDEEFF\""
config **.sensor[*].sendInterval 0.5s
config **.sensor[*].mode "\"Secure\""
config **.gateway.procDelay 1ms
config **.gateway.hmacWindow 1s
config **.gateway.costForward_mJ 5
config **.gateway.costVerify_mJ 5
config **.gateway.batteryInit_mJ 5000
config **.gateway.securityEnabled true
config **.gateway.checkHmac true
config **.gateway.checkFreshness true
config **.gateway.checkDuplicate true
config **.gateway.duplicateMethod "\"set\""
config **.gateway.bloomBits 16384
config **.gateway.bloomHashes 3
config **.gateway.sbfBits 16384
config **.gateway.sbfHashes 3
config **.gateway.sbfDecay 0.02
config **.fakeNode.enabled false
config **.fakeNode.attackMode 1
config **.fakeNode.replayInterval 2.5s
config **.fakeNode.validMac true
config **.fakeNode.replayId 100000
config **.fakeNode.replayTsUs 500000
config **.fakeNode.dupBurstLen 4
config **.fakeNode.dupBurstGap 200ms
config **.fakeNode.outOfOrderJitter 80ms
config sim-time-limit 10s

vector 0 LightIoTNetwork.cloud e2eDelay_valid ETV
vector 1 LightIoTNetwork.cloud e2eDelay_debug ETV
0	3	0.502330393134	0.001000393134
0	6	0.529474226361	0.001000226361
0	9	0.672521662967	0.000999662967
0	12	0.690938947558	0.000999947558
0	15	0.767188559355	0.000999559355
0	18	0.790342293516	0.001000293516
0	21	0.807966216303	0.001000216303
0	24	0.959898582915	0.000999582915
0	27	1.014687421824	0.001000421824
0	30	1.017398630803	0.000999630803
0	33	1.035110876033	0.000999876033
0	36	1.053540185628	0.001000185628
0	39	1.071667583728	0.000999583728
0	42	1.078156677609	0.000999677609
0	45	1.159128188201	0.001000188201
0	48	1.18627698121	0.00099998121
0	51	1.205086923832	0.000999923832
0	54	1.219738251296	0.001000251296
0	57	1.222543862484	0.000999862484
0	60	1.27988791915	0.00099991915
0	63	1.316989346103	0.001000346103
0	66	1.318902469612	0.001000469612
0	69	1.334896863507	0.000999863507
0	72	1.393063881736	0.000999881736
0	75	1.394613079563	0.001000079563
0	78	1.453684359159	0.001000359159
0	81	1.485447618714	0.000999618714
0	84	1.490633997227	0.000999997227
0	87	1.506446904944	0.000999904944
0	90	1.511896329046	0.001000329046
0	93	1.518112742504	0.000999742504
0	96	1.543236630921	0.000999630921
0	99	1.588511519389	0.000999519389
0	102	1.599139255028	0.001000255028
0	105	1.697362134139	0.001000134139
0	108	1.706919378833	0.001000378833
0	111	1.709176257065	0.001000257065
0	114	1.716246874769	0.000999874769
0	117	1.767172289149	0.001000289149
0	120	1.798418551985	0.000999551985
0	123	1.810279000782	0.001000000782
0	126	1.820689216698	0.001000216698
0	129	1.847912335139	0.001000335139
0	132	1.86407949631	0.00100049631
0	135	1.890263325767	0.001000325767
0	138	1.917471282835	0.001000282835
0	141	1.959330740081	0.000999740081
0	144	1.971070863003	0.000999863003
0	147	2.018115433119	0.001000433119
0	150	2.028375891292	0.000999891292
0	153	2.045303170591	0.001000170591
0	156	2.061328119411	0.001000119411
0	159	2.097639019367	0.001000019367
0	162	2.107018208898	0.001000208898
0	165	2.191530721145	0.000999721145
0	168	2.208377862022	0.000999862022
0	171	2.220443051913	0.001000051913
0	174	2.230401284456	0.001000284456
0	177	2.290323244103	0.001000244103
0	180	2.305013854754	0.000999854754
0	183	2.3397339073	0.0009999073
0	186	2.342914863302	0.000999863302
0	189	2.35148123207	0.00100023207
0	192	2.354379279678	0.001000279678
0	195	2.362728206533	0.001000206533
0	198	2.403193717146	0.000999717146
0	201	2.477300665946	0.000999665946
0	204	2.512739048874	0.001000048874
0	207	2.516358534106	0.000999534106
0	210	2.539375191345	0.001000191345
0	214	2.560682611375	0.000999611375
0	217	2.597838100883	0.001000100883
0	219	2.625247361151	2.125247361151
0	222	2.63158535119	0.00100035119
0	225	2.640045980293	0.000999980293
0	228	2.655566763039	0.000999763039
0	233	2.671962498244	0.001000498244
0	236	2.712194007494	0.001000007494
0	241	2.76472850216	0.00099950216
0	244	2.772648221905	0.001000221905
0	247	2.773879072487	0.001000072487
0	250	2.803199612534	0.000999612534
0	253	2.853099998528	0.000999998528
0	256	2.869459744193	0.000999744193
0	259	2.874530009599	0.001000009599
0	262	2.887734366324	0.001000366324
0	265	2.942241703857	0.000999703857
0	268	2.972913865558	0.000999865558
0	271	2.978695078985	0.001000078985
0	274	3.013716206792	0.001000206792
0	277	3.016932445415	0.001000445415
0	280	3.080819724894	0.000999724894
0	283	3.091883020707	0.001000020707
0	286	3.130348873556	0.000999873556
0	289	3.151768778054	0.000999778054
0	292	3.173634539893	0.000999539893
0	295	3.176436657365	0.000999657365
0	298	3.214348826742	0.000999826742
0	301	3.226987891317	0.000999891317
0	304	3.256376891163	0.000999891163
0	307	3.275593273294	0.001000273294
0	310	3.296844377902	0.001000377902
0	313	3.316907226945	0.001000226945
0	316	3.349777732207	0.000999732207
0	319	3.376980252889	0.001000252889
0	322	3.413876744336	0.000999744336
0	325	3.415942641905	0.000999641905
0	328	3.434811951615	0.000999951615
0	331	3.472925537498	0.000999537498
0	334	3.477517163753	0.001000163753
0	339	3.536100565174	0.000999565174
0	340	3.536329439189	0.001000439189
0	343	3.598176565835	0.000999565835
0	346	3.603234424534	0.001000424534
0	349	3.651532206427	0.001000206427
0	352	3.667871352703	0.001000352703
0	355	3.681561238877	0.001000238877
0	358	3.752107558654	0.000999558654
0	361	3.76029985037	0.00099985037
0	364	3.792022442374	0.001000442374
0	369	3.794661119694	0.001000119694
0	370	3.795419734482	0.000999734482
0	373	3.801303304032	0.001000304032
0	376	3.84588966621	0.00099966621
0	379	3.87283421324	0.00100021324
0	382	3.917272751242	0.000999751242
0	385	3.927605647477	0.000999647477
0	388	3.939274972816	0.000999972816
0	391	3.948189760673	0.000999760673
0	394	3.991439538519	0.000999538519
0	397	4.000173369911	0.001000369911
0	400	4.03697956586	0.00099956586
0	403	4.111654272628	0.001000272628
0	406	4.11700028947	0.00100028947
0	409	4.163607138464	0.001000138464
0	412	4.199097941652	0.000999941652
0	415	4.226247564633	0.000999564633
0	418	4.269133600195	0.000999600195
0	421	4.279098720287	0.000999720287
0	426	4.287876628454	0.000999628454
0	427	4.288850409373	0.001000409373
0	430	4.307199213001	0.001000213001
0	433	4.346843866095	0.000999866095
0	436	4.349725598189	0.000999598189
0	439	4.361549199721	0.001000199721
0	442	4.388188901589	0.000999901589
0	445	4.393824439682	0.001000439682
0	450	4.455267424601	0.001000424601
0	451	4.455574195085	0.001000195085
0	454	4.477800134592	0.001000134592
0	457	4.494401878514	0.000999878514
0	460	4.561831602661	0.000999602661
0	463	4.576375975599	0.000999975599
0	466	4.601959553081	0.000999553081
0	469	4.63152666597	0.00099966597
0	472	4.703256488382	0.001000488382
0	475	4.727550126937	0.001000126937
0	478	4.787857803794	0.000999803794
0	481	4.797147739025	0.000999739025
0	486	4.806885865376	0.000999865376
0	487	4.807384478206	0.001000478206
0	490	4.816062098576	0.001000098576
0	493	4.834798086247	0.001000086247
0	496	4.85655333742	0.00100033742
0	499	4.858541663199	0.000999663199
0	502	4.897261711256	0.000999711256
0	505	4.906497159854	0.001000159854
0	508	4.926062655356	0.000999655356
0	511	4.935169466188	0.001000466188
0	514	4.950565723469	0.000999723469
0	517	5.014066697703	0.000999697703
0	520	5.016648491446	0.001000491446
0	524	5.062807913101	0.000999913101
0	528	5.142356688971	0.000999688971
0	532	5.15896321039	0.00100021039
0	535	5.161266841833	0.000999841833
0	540	5.274110351222	0.001000351222
0	544	5.285155584894	0.000999584894
0	547	5.28752379855	0.00099979855
0	550	5.298579430742	0.001000430742
0	553	5.303856292178	0.001000292178
0	556	5.307877438748	0.001000438748
0	559	5.319970536254	0.000999536254
0	562	5.326304675847	0.000999675847
0	565	5.35098555975	0.00099955975
0	568	5.414556429791	0.001000429791
0	571	5.431483652419	0.000999652419
0	574	5.450109911521	0.000999911521
0	579	5.454963690041	0.000999690041
0	580	5.455732308281	0.001000308281
0	583	5.498201524233	0.000999524233
0	586	5.537702304844	0.001000304844
0	589	5.5470535903	0.0009995903
0	592	5.624422802962	0.000999802962
0	595	5.650202266637	0.001000266637
0	598	5.661741200369	0.001000200369
0	601	5.748089447965	0.001000447965
0	604	5.782711992317	0.000999992317
0	607	5.784701696945	0.000999696945
0	610	5.79412710422	0.00100010422
0	613	5.801486275321	0.001000275321
0	616	5.813919603684	0.000999603684
0	619	5.834407395798	0.001000395798
0	622	5.853932254947	0.001000254947
0	625	5.872685830713	0.000999830713
0	628	5.919865293868	0.001000293868
0	631	5.940107116125	0.001000116125
0	634	5.958163893525	0.000999893525
0	637	5.962118922895	0.000999922895
0	640	5.975889257388	0.001000257388
0	643	6.021558285364	0.001000285364
0	646	6.02508184842	0.00099984842
0	649	6.08844254238	0.00099954238
0	652	6.166962710884	0.000999710884
0	655	6.170301015859	0.001000015859
0	658	6.194723997987	0.000999997987
0	661	6.236942575055	0.000999575055
0	664	6.281366337416	0.001000337416
0	667	6.291832013239	0.001000013239
0	670	6.308253834698	0.000999834698
0	673	6.325135408644	0.001000408644
0	676	6.328927625528	0.000999625528
0	679	6.337861918982	0.000999918982
0	682	6.34048499274	0.00099999274
0	685	6.389316759046	0.000999759046
0	688	6.405063203558	0.001000203558
0	691	6.439715009974	0.001000009974
0	694	6.451589830429	0.000999830429
0	697	6.458025615173	0.000999615173
0	700	6.466168460505	0.001000460505
0	703	6.491577077307	0.001000077307
0	706	6.518371870296	0.000999870296
0	709	6.609702189499	0.001000189499
0	712	6.679177490412	0.001000490412
0	717	6.704831905265	0.000999905265
0	718	6.705614171457	0.001000171457
0	721	6.723807229612	0.001000229612
0	724	6.749026017007	0.001000017007
0	727	6.78553002509	0.00100002509
0	730	6.796712253009	0.001000253009
0	733	6.809760800096	0.000999800096
0	736	6.810795175447	0.001000175447
0	739	6.811835659666	0.000999659666
0	742	6.833699354575	0.001000354575
0	745	6.904654573204	0.000999573204
0	748	6.919435615324	0.000999615324
0	751	6.928758929739	0.000999929739
0	754	6.93408265442	0.00099965442
0	757	6.946700811432	0.000999811432
0	760	6.973803917411	0.000999917411
0	763	6.977804412715	0.001000412715
0	766	7.031376102913	0.001000102913
0	769	7.095352390687	0.001000390687
0	772	7.162611263594	0.001000263594
0	775	7.17435706551	0.00100006551
0	778	7.176056239871	0.001000239871
0	781	7.219201462227	0.001000462227
0	784	7.237860574803	0.000999574803
0	787	7.270678673684	0.000999673684
0	790	7.27253850519	0.00099950519
0	793	7.281200214475	0.001000214475
0	796	7.304025584132	0.000999584132
0	799	7.314568845042	0.000999845042
0	802	7.31792644942	0.00100044942
0	805	7.362130042186	0.001000042186
0	808	7.402908365497	0.001000365497
0	811	7.407763102277	0.001000102277
0	814	7.442602210817	0.001000210817
0	817	7.467986030922	0.001000030922
0	820	7.490381757355	0.000999757355
0	823	7.508949079224	0.001000079224
0	827	7.555437352228	0.001000352228
0	830	7.565410533777	0.000999533777
0	834	7.656322386233	0.001000386233
0	838	7.679309724247	0.000999724247
0	841	7.695442344875	0.001000344875
0	846	7.736711067565	0.001000067565
0	851	7.757334412425	0.001000412425
0	852	7.757817484065	0.001000484065
0	855	7.76760697758	0.00099997758
0	859	7.79020767007	0.00099967007
0	864	7.845753065309	0.001000065309
0	865	7.846020058052	0.001000058052
0	868	7.85556522475	0.00100022475
0	871	7.870091878061	0.000999878061
0	874	7.893731791222	0.000999791222
0	877	7.924663080064	0.001000080064
0	880	7.960702269965	0.001000269965
0	883	7.975759214325	0.001000214325
0	886	7.983567000226	0.001000000226
0	889	8.003249455265	0.001000455265
0	892	8.066711672974	0.000999672974
0	895	8.093941471119	0.001000471119
0	898	8.133964508656	0.000999508656
0	901	8.15117113674	0.00100013674
0	904	8.203534785423	0.000999785423
0	907	8.213651695008	0.000999695008
0	910	8.249093649746	0.000999649746
0	913	8.295076382765	0.001000382765
0	916	8.298400638183	0.000999638183
0	919	8.30197546915	0.00100046915
0	922	8.316866082765	0.001000082765
0	925	8.318792359157	0.001000359157
0	928	8.324572765335	0.000999765335
0	931	8.395447851646	0.000999851646
0	934	8.398413369059	0.001000369059
0	937	8.432256070756	0.001000070756
0	940	8.488260108697	0.001000108697
0	943	8.491923723811	0.000999723811
0	946	8.504175070229	0.001000070229
0	949	8.505240478179	0.001000478179
0	952	8.543127835771	0.000999835771
0	955	8.622250927355	0.000999927355
0	958	8.648685856397	0.000999856397
0	961	8.664433238351	0.001000238351
0	964	8.693588784173	0.000999784173
0	967	8.699833325131	0.001000325131
0	970	8.762194364937	0.001000364937
0	973	8.775292080431	0.001000080431
0	976	8.78910417135	0.00100017135
0	979	8.793471678485	0.000999678485
0	982	8.799524268392	0.001000268392
0	985	8.812023682076	0.000999682076
0	988	8.848022304542	0.001000304542
0	991	8.87679301265	0.00100001265
0	994	8.92837950529	0.00099950529
0	997	8.956373372673	0.001000372673
0	1000	8.966643889596	0.000999889596
0	1003	8.977131046447	0.001000046447
0	1006	8.984437450811	0.001000450811
0	1009	9.025922274798	0.001000274798
0	1012	9.054055001909	0.001000001909
0	1015	9.107185964939	0.000999964939
0	1018	9.134267733757	0.000999733757
0	1021	9.146049841096	0.000999841096
0	1024	9.175506566743	0.000999566743
0	1027	9.213882249102	0.001000249102
0	1030	9.235492427507	0.001000427507
0	1033	9.293744286732	0.001000286732
0	1036	9.313835722393	0.000999722393
0	1039	9.326344813566	0.000999813566
0	1042	9.338595023519	0.001000023519
0	1045	9.358100231945	0.001000231945
0	1048	9.367013295038	0.001000295038
0	1051	9.387714648082	0.000999648082
0	1054	9.430111306695	0.001000306695
0	1057	9.450698479798	0.001000479798
0	1060	9.457363417068	0.001000417068
0	1063	9.459385633677	0.000999633677
0	1066	9.469975560158	0.000999560158
0	1069	9.51894533229	0.00100033229
0	1072	9.522464112398	0.001000112398
0	1075	9.606644854973	0.000999854973
0	1080	9.624891465857	0.001000465857
0	1081	9.625625433189	0.001000433189
0	1084	9.639950436818	0.001000436818
0	1087	9.704437439886	0.001000439886
0	1090	9.708170596929	0.000999596929
0	1093	9.747246167483	0.001000167483
0	1096	9.788955295897	0.001000295897
0	1099	9.831048582213	0.000999582213
0	1102	9.856933664296	0.000999664296
0	1105	9.862446878851	0.000999878851
0	1108	9.877602550432	0.000999550432
0	1111	9.908761014856	0.001000014856
0	1114	9.919525274888	0.001000274888
0	1117	9.940461102918	0.001000102918
0	1120	9.946992544247	0.000999544247
0	1123	9.951323448936	0.001000448936
0	1126	9.952805371325	0.001000371325
1	3	0.502330393134	0.001000393134
1	6	0.529474226361	0.001000226361
1	9	0.672521662967	0.000999662967
1	12	0.690938947558	0.000999947558
1	15	0.767188559355	0.000999559355
1	18	0.790342293516	0.001000293516
1	21	0.807966216303	0.001000216303
1	24	0.959898582915	0.000999582915
1	27	1.014687421824	0.001000421824
1	30	1.017398630803	0.000999630803

