version 3
run Attack50_record-0-20250915-22:43:50-99398
attr configname Attack50_record
attr datetime 20250915-22:43:50
attr datetimef 20250915-224350
attr experiment Attack50_record
attr inifile run_record.ini
attr iterationvars ""
attr iterationvarsd ""
attr iterationvarsf ""
attr measurement ""
attr network ned.LightIoTNetwork
attr processid 99398
attr repetition 0
attr replication #0
attr resultdir results
attr runnumber 0
attr seedset 101
config **.result-recording-modes all
config **.scalar-recording true
config **.vector-recording true
config output-scalar-file results/delay/Attack50_record_s101.sca
config output-vector-file results/delay/Attack50_record_s101.vec
config record-eventlog false
config seed-set 101
config network ned.LightIoTNetwork
config LightIoTNetwork.numSensorNodes 50
config **.sensor[*].mode "\"Secure\""
config **.fakeNode.enabled true
config **.fakeNode.validMac true
config **.gateway.securityEnabled true
config **.gateway.hmacWindow 3s
config description "Secure Mode Simulation (includes all scenarios)"
config network ned.LightIoTNetwork
config ned-path .
config sim-time-limit 10s
config record-eventlog true
config cmdenv-express-mode false
config network ned.LightIoTNetwork
config sim-time-limit 10s
config output-scalar-file results/secure_output.sca
config output-vector-file results/secure_output.vec
config network LightIoTNetwork
config sim-time-limit 10s
config output-scalar-file results/nosecure_output.sca
config output-vector-file results/nosecure_output.vec
config network LightIoTNetwork
config sim-time-limit 10s
config output-scalar-file results/attack_output.sca
config output-vector-file results/attack_output.vec
config output-scalar-file results/Attack50_record-0.sca
config output-vector-file results/Attack50_record-0.vec
config **.scalar-recording true
config **.vector-recording true
config **.statistic-recording true
config **.result-recording-modes all
config rng-class cMersenneTwister
config num-rngs 1
config seed-set 123
config output-scalar-file results/Attack50_record-0.sca
config output-vector-file results/Attack50_record-0.vec
config **.scalar-recording true
config **.vector-recording true
config **.result-recording-modes all
config **.sensor[*].aesKeyHex "\"00112233445566778899AABBCCDDEEFF\""
config **.gateway.aesKeyHex "\"00112233445566778899AABBCCDDEEFF\""
config **.fakeNode.aesKeyHex "\"00112233445566778899AABBCCDDEEFF\""
config **.sensor[*].sendInterval 0.5s
config **.sensor[*].mode "\"Secure\""
config **.gateway.procDelay 1ms
config **.gateway.hmacWindow 1s
config **.gateway.costForward_mJ 5
config **.gateway.costVerify_mJ 5
config **.gateway.batteryInit_mJ 5000
config **.gateway.securityEnabled true
config **.gateway.checkHmac true
config **.gateway.checkFreshness true
config **.gateway.checkDuplicate true
config **.gateway.duplicateMethod "\"set\""
config **.gateway.bloomBits 16384
config **.gateway.bloomHashes 3
config **.gateway.sbfBits 16384
config **.gateway.sbfHashes 3
config **.gateway.sbfDecay 0.02
config **.fakeNode.enabled false
config **.fakeNode.attackMode 1
config **.fakeNode.replayInterval 2.5s
config **.fakeNode.validMac true
config **.fakeNode.replayId 100000
config **.fakeNode.replayTsUs 500000
config **.fakeNode.dupBurstLen 4
config **.fakeNode.dupBurstGap 200ms
config **.fakeNode.outOfOrderJitter 80ms
config sim-time-limit 10s

vector 0 LightIoTNetwork.cloud e2eDelay_valid ETV
vector 1 LightIoTNetwork.cloud e2eDelay_debug ETV
0	3	0.502330393134	0.001000393134
0	6	0.526496919407	0.000999919407
0	9	0.529474226361	0.001000226361
0	12	0.549484534025	0.000999534025
0	15	0.576681897812	0.000999897812
0	18	0.584561434178	0.001000434178
0	21	0.638869236758	0.001000236758
0	24	0.647239580587	0.000999580587
0	27	0.672521662967	0.000999662967
0	30	0.682892406428	0.001000406428
0	33	0.687967428541	0.001000428541
0	36	0.690938947558	0.000999947558
0	39	0.733353664236	0.000999664236
0	42	0.767188559355	0.000999559355
0	45	0.777238828432	0.000999828432
0	48	0.790342293516	0.001000293516
0	51	0.807966216303	0.001000216303
0	54	0.853131954627	0.000999954627
0	57	0.933896546787	0.000999546787
0	60	0.957502462039	0.001000462039
0	63	1.012593541922	0.000999541922
0	66	1.017398630803	0.000999630803
0	69	1.018867470859	0.001000470859
0	72	1.028563459077	0.001000459077
0	77	1.035110876033	0.000999876033
0	78	1.035253206803	0.001000206803
0	81	1.038601726339	0.000999726339
0	84	1.053540185628	0.001000185628
0	87	1.055227591725	0.000999591725
0	90	1.057363487895	0.001000487895
0	95	1.070850484818	0.001000484818
0	96	1.071667583728	0.000999583728
0	99	1.078156677609	0.000999677609
0	102	1.082257548882	0.000999548882
0	105	1.091231298003	0.001000298003
0	108	1.104548417799	0.001000417799
0	111	1.108043339801	0.001000339801
0	114	1.112599509371	0.000999509371
0	117	1.138070841715	0.000999841715
0	120	1.151435757731	0.000999757731
0	125	1.18627698121	0.00099998121
0	126	1.186306328349	0.001000328349
0	129	1.190455183851	0.001000183851
0	132	1.195672617921	0.000999617921
0	135	1.220603291061	0.001000291061
0	140	1.22173096293	0.00099996293
0	141	1.222543862484	0.000999862484
0	144	1.224207761743	0.000999761743
0	147	1.229992758552	0.000999758552
0	150	1.249703709198	0.000999709198
0	153	1.257488342723	0.001000342723
0	158	1.275716713	0.000999713
0	159	1.276064727827	0.000999727827
0	162	1.27988791915	0.00099991915
0	165	1.286601760959	0.000999760959
0	168	1.29282632803	0.00100032803
0	173	1.325936142168	0.001000142168
0	174	1.326652608648	0.000999608648
0	177	1.327678144047	0.001000144047
0	180	1.334896863507	0.000999863507
0	183	1.393063881736	0.000999881736
0	186	1.394613079563	0.001000079563
0	189	1.39841962573	0.00099962573
0	192	1.441865619621	0.000999619621
0	195	1.447284266654	0.001000266654
0	198	1.453684359159	0.001000359159
0	201	1.455156305013	0.001000305013
0	204	1.466483220294	0.001000220294
0	207	1.478911906317	0.000999906317
0	210	1.485447618714	0.000999618714
0	213	1.49012117267	0.00100017267
0	216	1.499146917927	0.000999917927
0	219	1.517078135301	0.001000135301
0	222	1.527972982706	0.000999982706
0	225	1.53195233296	0.00100033296
0	230	1.538783420109	0.001000420109
0	231	1.539069352275	0.001000352275
0	234	1.552813802682	0.000999802682
0	237	1.553908612275	0.000999612275
0	240	1.561591230472	0.001000230472
0	243	1.578555539482	0.000999539482
0	246	1.581603089998	0.001000089998
0	249	1.594626173167	0.001000173167
0	252	1.595787123077	0.001000123077
0	255	1.600576321711	0.001000321711
0	258	1.602408278803	0.001000278803
0	261	1.614409811863	0.000999811863
0	264	1.628993011801	0.001000011801
0	269	1.64359640451	0.00100040451
0	270	1.644458880647	0.000999880647
0	275	1.661433291317	0.001000291317
0	276	1.662102930782	0.000999930782
0	279	1.671532239019	0.001000239019
0	282	1.70355548181	0.00100048181
0	285	1.716588782308	0.000999782308
0	290	1.722971284109	0.001000284109
0	291	1.723801692993	0.000999692993
0	294	1.734227588562	0.000999588562
0	299	1.741715556313	0.000999556313
0	300	1.741868076449	0.001000076449
0	303	1.761962501844	0.000999501844
0	306	1.76521998879	0.00099998879
0	311	1.76771311683	0.00100011683
0	312	1.767771486052	0.001000486052
0	315	1.777871532248	0.000999532248
0	318	1.789743370585	0.001000370585
0	321	1.79694022939	0.00100022939
0	324	1.809567066374	0.001000066374
0	327	1.834173117344	0.001000117344
0	330	1.85453649836	0.00100049836
0	335	1.866764819784	0.000999819784
0	336	1.867024878784	0.000999878784
0	339	1.894624751503	0.000999751503
0	342	1.905666576582	0.000999576582
0	345	1.908965199439	0.001000199439
0	348	1.934310912573	0.000999912573
0	353	1.96650770884	0.00099970884
0	354	1.966681260428	0.001000260428
0	357	1.97867533469	0.00100033469
0	360	1.979684431524	0.001000431524
0	363	1.995245754182	0.000999754182
0	366	2.017581859812	0.000999859812
0	371	2.036600161901	0.001000161901
0	372	2.036905649839	0.000999649839
0	377	2.04838150204	0.00099950204
0	380	2.048925736685	0.000999736685
0	383	2.049762572626	0.000999572626
0	384	2.050390094354	0.001000094354
0	389	2.057518378133	0.001000378133
0	390	2.05754493214	0.00099993214
0	393	2.064063889625	0.000999889625
0	396	2.072899395575	0.001000395575
0	399	2.075320133613	0.001000133613
0	402	2.101455322397	0.001000322397
0	405	2.11080265825	0.00099965825
0	408	2.12187400558	0.00100000558
0	411	2.127887518656	0.000999518656
0	414	2.142758876737	0.000999876737
0	417	2.155671336547	0.001000336547
0	420	2.175685469596	0.001000469596
0	423	2.179128972323	0.000999972323
0	428	2.200082798022	0.000999798022
0	429	2.201026382901	0.001000382901
0	432	2.206119617073	0.000999617073
0	435	2.212784226796	0.001000226796
0	440	2.215428178081	0.001000178081
0	441	2.215725209168	0.001000209168
0	444	2.218732252437	0.001000252437
0	447	2.228181294049	0.001000294049
0	450	2.249887122073	0.001000122073
0	453	2.255498296929	0.001000296929
0	456	2.268942752503	0.000999752503
0	459	2.270733826047	0.000999826047
0	462	2.27222398715	0.00099998715
0	465	2.275097551242	0.000999551242
0	468	2.281212440575	0.001000440575
0	471	2.287245509843	0.000999509843
0	474	2.30209264485	0.00099964485
0	477	2.314595407386	0.001000407386
0	480	2.343773743533	0.000999743533
0	483	2.382988683645	0.000999683645
0	486	2.385749082383	0.001000082383
0	489	2.417262529091	0.000999529091
0	492	2.425174426334	0.001000426334
0	495	2.431588129792	0.001000129792
0	498	2.433997564948	0.000999564948
0	501	2.450037193134	0.001000193134
0	504	2.454461928992	0.000999928992
0	507	2.473679472389	0.001000472389
0	510	2.48752312667	0.00100012667
0	513	2.497483901399	0.000999901399
0	516	2.50374262547	0.00099962547
0	519	2.509671238716	0.001000238716
0	522	2.514217373495	0.001000373495
0	525	2.515555285591	0.001000285591
0	528	2.527483969856	0.000999969856
0	531	2.536194510128	0.000999510128
0	534	2.565696193138	0.001000193138
0	537	2.568046321229	0.001000321229
0	540	2.583621022523	0.001000022523
0	543	2.584954922553	0.000999922553
0	546	2.588573764938	0.000999764938
0	549	2.590787230244	0.001000230244
0	552	2.594082978065	0.000999978065
0	557	2.609668199182	0.001000199182
0	558	2.61062411391	0.00100011391
0	561	2.614539993275	0.000999993275
0	564	2.619394108256	0.001000108256
0	567	2.648115233098	0.001000233098
0	572	2.688576572457	0.000999572457
0	573	2.689177225577	0.001000225577
0	576	2.696919053326	0.001000053326
0	579	2.709907410759	0.001000410759
0	582	2.711286201885	0.001000201885
0	585	2.720820606754	0.000999606754
0	588	2.72274172399	0.00099972399
0	591	2.730982221755	0.001000221755
0	596	2.736260138079	0.001000138079
0	597	2.736481991479	0.000999991479
0	600	2.747392767737	0.000999767737
0	605	2.752799940038	0.000999940038
0	606	2.753188429702	0.001000429702
0	609	2.755191537318	0.000999537318
0	612	2.763463043397	0.001000043397
0	615	2.769343588779	0.000999588779
0	618	2.775571909778	0.000999909778
0	621	2.796217029169	0.001000029169
0	624	2.817502251965	0.001000251965
0	627	2.822629443672	0.001000443672
0	630	2.848976242098	0.001000242098
0	633	2.850480243074	0.001000243074
0	636	2.888108470268	0.001000470268
0	639	2.919792575481	0.000999575481
0	642	2.929043499844	0.001000499844
0	645	2.939605355076	0.001000355076
0	648	2.963643683957	0.000999683957
0	651	2.976111057633	0.001000057633
0	656	2.978403169917	0.001000169917
0	657	2.979150622896	0.000999622896
0	660	2.984863444975	0.001000444975
0	665	3.010879887801	0.000999887801
0	666	3.011641934872	2.511641934872
0	669	3.016337096946	0.001000096946
0	672	3.034316122717	0.001000122717
0	677	3.04513157755	0.00099957755
0	678	3.04531453105	0.00099953105
0	681	3.048538083209	0.001000083209
0	686	3.052211146638	0.001000146638
0	687	3.052401656285	0.000999656285
0	690	3.062420203838	0.001000203838
0	693	3.077339968037	0.000999968037
0	696	3.07911966436	0.00099966436
0	700	3.107270155846	0.001000155846
0	703	3.10886501579	0.00100001579
0	706	3.109922121721	0.001000121721
0	712	3.111781135991	0.001000135991
0	713	3.111940985684	0.000999985684
0	716	3.114401714923	0.000999714923
0	719	3.12646035091	0.00100035091
0	722	3.13668545829	0.00100045829
0	726	3.1585953644	0.0010003644
0	729	3.182467247453	0.001000247453
0	732	3.198641901346	0.000999901346
0	735	3.209606378547	0.001000378547
0	738	3.211418797587	0.000999797587
0	741	3.218178700445	0.000999700445
0	745	3.222122190287	0.001000190287
0	748	3.227162170386	0.001000170386
0	751	3.22995814993	0.00100014993
0	754	3.231710780224	0.000999780224
0	759	3.23305253454	0.00099953454
0	760	3.233633114606	0.001000114606
0	763	3.245817091291	0.001000091291
0	766	3.261927511356	0.000999511356
0	769	3.264615829543	0.000999829543
0	772	3.278800857555	0.000999857555
0	775	3.283716000545	0.001000000545
0	780	3.290543637587	0.000999637587
0	781	3.291328010172	0.001000010172
0	784	3.333280554203	0.000999554203
0	787	3.335203577506	0.000999577506
0	790	3.363484475691	0.001000475691
0	793	3.373758671456	0.000999671456
0	796	3.398568660089	0.000999660089
0	799	3.403226348663	0.001000348663
0	802	3.41004742349	0.00100042349
0	805	3.43073371963	0.00099971963
0	808	3.446286502853	0.000999502853
0	811	3.453117043571	0.001000043571
0	814	3.489671489921	0.001000489921
0	817	3.495378413562	0.001000413562
0	822	3.512296108179	0.001000108179
0	823	3.512374959535	0.000999959535
0	826	3.524856653343	0.000999653343
0	829	3.550106988984	0.000999988984
0	834	3.557606114399	0.001000114399
0	835	3.55789187569	0.00099987569
0	838	3.569100116938	0.001000116938
0	841	3.574094684096	0.000999684096
0	844	3.580276739363	0.000999739363
0	849	3.582572514073	0.000999514073
0	850	3.583505483203	0.001000483203
0	853	3.588398405581	0.001000405581
0	856	3.617252614558	0.000999614558
0	859	3.628394012176	0.001000012176
0	862	3.637016558623	0.000999558623
0	865	3.644647294165	0.001000294165
0	870	3.653668466861	0.001000466861
0	873	3.654553959542	0.000999959542
0	874	3.655398094631	0.001000094631
0	877	3.668435936398	0.000999936398
0	880	3.680350078967	0.001000078967
0	883	3.681739310197	0.001000310197
0	886	3.686261746495	0.000999746495
0	889	3.692796621447	0.000999621447
0	892	3.715324369632	0.001000369632
0	897	3.731759117194	0.001000117194
0	898	3.731798904854	0.000999904854
0	901	3.736477242036	0.001000242036
0	904	3.739569633779	0.000999633779
0	907	3.74486980289	0.00099980289
0	912	3.746954490733	0.001000490733
0	913	3.747118230488	0.001000230488
0	916	3.755206580715	0.000999580715
0	919	3.760656627988	0.000999627988
0	922	3.772137233497	0.001000233497
0	925	3.786893298103	0.001000298103
0	928	3.794089557182	0.000999557182
0	931	3.819706879532	0.000999879532
0	934	3.828586908872	0.000999908872
0	937	3.831609863345	0.000999863345
0	940	3.846530972561	0.000999972561
0	943	3.857707235937	0.001000235937
0	946	3.882539659388	0.000999659388
0	949	3.911763483914	0.001000483914
0	952	3.938326710322	0.000999710322
0	955	3.941416804398	0.000999804398
0	958	3.969281553057	0.000999553057
0	961	3.988712270976	0.001000270976
0	964	3.990824711067	0.000999711067
0	967	3.994364598392	0.000999598392
0	970	3.996304028526	0.001000028526
0	973	4.008673419033	0.001000419033
0	976	4.039578001084	0.001000001084
0	979	4.040684415771	0.001000415771
0	984	4.053904654107	0.000999654107
0	985	4.054310381762	0.001000381762
0	988	4.055743571788	0.000999571788
0	991	4.063077724909	0.000999724909
0	996	4.081400369572	0.001000369572
0	997	4.082200832129	0.000999832129
0	1002	4.092524636417	0.000999636417
0	1003	4.092620726999	0.000999726999
0	1006	4.10973917318	0.00100017318
0	1009	4.129839347815	0.001000347815
0	1012	4.135660475213	0.001000475213
0	1017	4.139761282178	0.001000282178
0	1018	4.140702153765	0.001000153765
0	1021	4.144761855037	0.000999855037
0	1024	4.166982694854	0.000999694854
0	1027	4.168764596082	0.000999596082
0	1030	4.174413224192	0.001000224192
0	1035	4.191277245105	0.001000245105
0	1036	4.191330632962	0.000999632962
0	1039	4.193756116599	0.001000116599
0	1044	4.196677589112	0.000999589112
0	1045	4.197242152202	0.001000152202
0	1048	4.245808041165	0.001000041165
0	1051	4.260631232125	0.001000232125
0	1054	4.263348826649	0.000999826649
0	1057	4.265233846798	0.000999846798
0	1060	4.27157826342	0.00100026342
0	1063	4.274197571211	0.000999571211
0	1066	4.276810275995	0.001000275995
0	1069	4.284809084654	0.001000084654
0	1072	4.28602524586	0.00100024586
0	1075	4.293194780357	0.000999780357
0	1078	4.294847937859	0.000999937859
0	1081	4.301961466762	0.001000466762
0	1084	4.313733288365	0.001000288365
0	1087	4.31494008305	0.00100008305
0	1090	4.324632920837	0.000999920837
0	1093	4.354916780604	0.000999780604
0	1096	4.375412736855	0.000999736855
0	1099	4.388445576768	0.000999576768
0	1102	4.405664079636	0.001000079636
0	1105	4.431971995182	0.000999995182
0	1110	4.441959722479	0.000999722479
0	1111	4.442214151727	0.001000151727
0	1114	4.456975080723	0.001000080723
0	1117	4.481621769301	0.000999769301
0	1120	4.520155883858	0.000999883858
0	1123	4.523137176852	0.001000176852
0	1126	4.530572318121	0.001000318121
0	1129	4.53392265297	0.00099965297
0	1134	4.550684635479	0.000999635479
0	1135	4.551185526045	0.000999526045
0	1138	4.56274825835	0.00100025835
0	1141	4.56425445033	0.00100045033
0	1146	4.580622823347	0.000999823347
0	1147	4.581325720902	0.000999720902
0	1150	4.603754925914	0.000999925914
0	1153	4.611266145784	0.001000145784
0	1158	4.62402037417	0.00100037417
0	1159	4.624957035504	0.001000035504
0	1162	4.629382925271	0.000999925271
0	1165	4.657250093366	0.001000093366
0	1170	4.666313726059	0.000999726059
0	1171	4.66699497213	0.00099997213
0	1174	4.676017553823	0.000999553823
0	1177	4.68458852775	0.00099952775
0	1180	4.687563272075	0.001000272075
0	1183	4.690039207506	0.001000207506
0	1186	4.691982444956	0.001000444956
0	1189	4.695335366179	0.001000366179
0	1192	4.7063967654	0.0009997654
0	1195	4.715872563095	0.000999563095
0	1198	4.718745107227	0.001000107227
0	1201	4.723357389307	0.001000389307
0	1206	4.753233945321	0.000999945321
0	1207	4.753436679648	0.000999679648
0	1210	4.755506987217	0.000999987217
0	1213	4.757288062011	0.001000062011
0	1216	4.770948960236	0.000999960236
0	1219	4.776461724727	0.000999724727
0	1222	4.781941729131	0.000999729131
0	1225	4.788579846592	0.000999846592
0	1230	4.800609594349	0.000999594349
0	1231	4.801142455777	0.001000455777
0	1234	4.806308241443	0.001000241443
0	1237	4.810665342932	0.001000342932
0	1240	4.841062261185	0.001000261185
0	1243	4.854569514956	0.000999514956
0	1246	4.860063265612	0.001000265612
0	1249	4.870053498958	0.001000498958
0	1252	4.953929403005	0.001000403005
0	1255	4.955026567795	0.000999567795
0	1258	4.957532043032	0.001000043032
0	1261	4.959067700103	0.000999700103
0	1264	4.964935251604	0.001000251604
0	1267	4.967165141412	0.001000141412
0	1270	4.987317988112	0.000999988112
0	1275	5.015576437186	0.001000437186
0	1276	5.016394140407	0.001000140407
0	1279	5.017508925379	0.000999925379
0	1282	5.020274840225	0.000999840225
0	1285	5.0463925536	0.0009995536
0	1288	5.062968614067	0.000999614067
0	1291	5.075696418035	0.001000418035
0	1296	5.084433446265	0.001000446265
0	1297	5.084710203133	0.001000203133
0	1302	5.093716573389	0.000999573389
0	1303	5.094363404019	0.001000404019
0	1306	5.122232663398	0.000999663398
0	1309	5.132653858769	0.000999858769
0	1312	5.138725336127	0.001000336127
0	1315	5.147277517546	0.000999517546
0	1318	5.148937076212	0.001000076212
0	1321	5.169130129065	0.001000129065
0	1324	5.177213276736	0.001000276736
0	1329	5.178436230076	0.001000230076
0	1330	5.179263130552	0.001000130552
0	1333	5.186762081528	0.001000081528
0	1336	5.212282942676	0.000999942676
0	1339	5.220448470161	0.001000470161
0	1342	5.221973908295	0.000999908295
0	1345	5.226774154114	0.001000154114
0	1348	5.240943277974	0.001000277974
0	1351	5.246180814178	0.000999814178
0	1354	5.247998809975	0.000999809975
0	1359	5.249271529516	0.000999529516
0	1360	5.249284345423	0.001000345423
0	1363	5.251745800137	0.000999800137
0	1366	5.268858935194	0.000999935194
0	1371	5.283018558984	0.000999558984
0	1372	5.283580200534	0.001000200534
0	1377	5.286787415668	0.001000415668
0	1378	5.287165377078	0.001000377078
0	1381	5.290142212527	0.001000212527
0	1384	5.315392054709	0.001000054709
0	1387	5.328542731654	0.000999731654
0	1390	5.331644558812	0.000999558812
0	1393	5.348349652393	0.000999652393
0	1396	5.350270486341	0.001000486341
0	1399	5.360979049396	0.001000049396
0	1402	5.405149650013	0.000999650013
0	1405	5.425014751427	0.000999751427
0	1408	5.426887247711	0.001000247711
0	1411	5.471660049933	0.001000049933
0	1415	5.495482412305	0.001000412305
0	1418	5.500673885317	0.000999885317
0	1423	5.506135061314	0.001000061314
0	1424	5.506326741747	0.000999741747
0	1427	5.530687743867	0.000999743867
0	1430	5.535628691407	0.000999691407
0	1433	5.545676221557	0.001000221557
0	1437	5.556794522934	0.000999522934
0	1442	5.561419055867	0.001000055867
0	1443	5.562109390412	0.001000390412
0	1447	5.573735779405	0.000999779405
0	1450	5.577667533975	0.000999533975
0	1453	5.586426253757	0.001000253757
0	1456	5.606435620947	0.000999620947
0	1461	5.61374867293	0.00099967293
0	1462	5.614278482877	0.001000482877
0	1465	5.617088079824	0.001000079824
0	1473	5.621889140248	0.001000140248
0	1474	5.622204926352	0.000999926352
0	1475	5.62276813062	0.00100013062
0	1478	5.637336048064	0.001000048064
0	1481	5.675058274458	0.001000274458
0	1484	5.685472965588	0.000999965588
0	1487	5.703324968344	0.000999968344
0	1493	5.709271780377	0.000999780377
0	1494	5.710064968511	0.000999968511
0	1498	5.719655997864	0.000999997864
1	3	0.502330393134	0.001000393134
1	6	0.526496919407	0.000999919407
1	9	0.529474226361	0.001000226361
1	12	0.549484534025	0.000999534025
1	15	0.576681897812	0.000999897812
1	18	0.584561434178	0.001000434178
1	21	0.638869236758	0.001000236758
1	24	0.647239580587	0.000999580587
1	27	0.672521662967	0.000999662967
1	30	0.682892406428	0.001000406428

