version 3
run Attack5_record-0-20250915-22:43:51-99449
attr configname Attack5_record
attr datetime 20250915-22:43:51
attr datetimef 20250915-224351
attr experiment Attack5_record
attr inifile run_record.ini
attr iterationvars ""
attr iterationvarsd ""
attr iterationvarsf ""
attr measurement ""
attr network ned.LightIoTNetwork
attr processid 99449
attr repetition 0
attr replication #0
attr resultdir results
attr runnumber 0
attr seedset 104
config **.result-recording-modes all
config **.scalar-recording true
config **.vector-recording true
config output-scalar-file results/delay/Attack5_record_s104.sca
config output-vector-file results/delay/Attack5_record_s104.vec
config record-eventlog false
config seed-set 104
config network ned.LightIoTNetwork
config LightIoTNetwork.numSensorNodes 5
config **.sensor[*].mode "\"Secure\""
config **.fakeNode.enabled true
config **.fakeNode.validMac true
config **.gateway.securityEnabled true
config **.gateway.hmacWindow 1s
config description "Secure Mode Simulation (includes all scenarios)"
config network ned.LightIoTNetwork
config ned-path .
config sim-time-limit 10s
config record-eventlog true
config cmdenv-express-mode false
config network ned.LightIoTNetwork
config sim-time-limit 10s
config output-scalar-file results/secure_output.sca
config output-vector-file results/secure_output.vec
config network LightIoTNetwork
config sim-time-limit 10s
config output-scalar-file results/nosecure_output.sca
config output-vector-file results/nosecure_output.vec
config network LightIoTNetwork
config sim-time-limit 10s
config output-scalar-file results/attack_output.sca
config output-vector-file results/attack_output.vec
config output-scalar-file results/Attack5_record-0.sca
config output-vector-file results/Attack5_record-0.vec
config **.scalar-recording true
config **.vector-recording true
config **.statistic-recording true
config **.result-recording-modes all
config rng-class cMersenneTwister
config num-rngs 1
config seed-set 123
config output-scalar-file results/Attack5_record-0.sca
config output-vector-file results/Attack5_record-0.vec
config **.scalar-recording true
config **.vector-recording true
config **.result-recording-modes all
config **.sensor[*].aesKeyHex "\"00112233445566778899AABBCCDDEEFF\""
config **.gateway.aesKeyHex "\"00112233445566778899AABBCCDDEEFF\""
config **.fakeNode.aesKeyHex "\"00112233445566778899AABBCCDDEEFF\""
config **.sensor[*].sendInterval 0.5s
config **.sensor[*].mode "\"Secure\""
config **.gateway.procDelay 1ms
config **.gateway.hmacWindow 1s
config **.gateway.costForward_mJ 5
config **.gateway.costVerify_mJ 5
config **.gateway.batteryInit_mJ 5000
config **.gateway.securityEnabled true
config **.gateway.checkHmac true
config **.gateway.checkFreshness true
config **.gateway.checkDuplicate true
config **.gateway.duplicateMethod "\"set\""
config **.gateway.bloomBits 16384
config **.gateway.bloomHashes 3
config **.gateway.sbfBits 16384
config **.gateway.sbfHashes 3
config **.gateway.sbfDecay 0.02
config **.fakeNode.enabled false
config **.fakeNode.attackMode 1
config **.fakeNode.replayInterval 2.5s
config **.fakeNode.validMac true
config **.fakeNode.replayId 100000
config **.fakeNode.replayTsUs 500000
config **.fakeNode.dupBurstLen 4
config **.fakeNode.dupBurstGap 200ms
config **.fakeNode.outOfOrderJitter 80ms
config sim-time-limit 10s

vector 0 LightIoTNetwork.cloud e2eDelay_valid ETV
vector 1 LightIoTNetwork.cloud e2eDelay_debug ETV
0	3	0.625341413612	0.001000413612
0	6	0.648920624586	0.000999624586
0	9	0.729298356989	0.001000356989
0	12	1.105188871594	0.000999871594
0	15	1.138396058673	0.001000058673
0	18	1.197869030641	0.001000030641
0	21	1.283668410568	0.001000410568
0	24	1.30849336211	0.00100036211
0	27	1.655091545498	0.000999545498
0	30	1.65718133184	0.00100033184
0	33	1.665609789709	0.000999789709
0	36	1.774212362943	0.001000362943
0	39	1.818038891581	0.000999891581
0	42	2.146750058465	0.001000058465
0	45	2.164192337682	0.001000337682
0	48	2.204681999306	0.000999999306
0	51	2.30907585728	0.00099985728
0	54	2.33318090341	0.00099990341
0	57	2.456759643819	1.956759643819
0	62	2.616360925695	0.000999925695
0	66	2.661562489578	0.001000489578
0	70	2.674246915453	0.000999915453
0	73	2.761418164149	0.001000164149
0	76	2.808870497811	0.001000497811
0	79	3.066890945307	0.000999945307
0	82	3.13523085399	0.00099985399
0	85	3.197377054021	0.001000054021
0	88	3.253223588807	0.000999588807
0	91	3.317173161869	0.001000161869
0	96	3.609395640692	0.000999640692
0	97	3.609963833748	0.000999833748
0	100	3.664087328827	0.001000328827
0	103	3.731370638125	0.000999638125
0	106	3.843132669222	0.000999669222
0	109	4.072284051075	0.001000051075
0	112	4.110729480162	0.001000480162
0	115	4.121513370122	0.001000370122
0	118	4.248256025976	0.001000025976
0	121	4.310707840486	0.000999840486
0	124	4.574361232621	0.001000232621
0	127	4.592423304354	0.001000304354
0	130	4.637303993828	0.000999993828
0	133	4.739792380576	0.001000380576
0	136	4.837806246522	0.001000246522
0	142	5.041114488267	0.001000488267
0	146	5.099296954763	0.000999954763
0	150	5.135928396296	0.001000396296
0	154	5.232728226041	0.001000226041
0	157	5.346445710141	0.000999710141
0	160	5.518160309712	0.001000309712
0	163	5.6015992217	0.0010002217
0	166	5.606575203917	0.001000203917
0	169	5.6932260748	0.0010000748
0	172	5.817219640616	0.000999640616
0	175	5.970506370277	0.001000370277
0	180	6.06783854379	0.00099954379
0	181	6.068541787774	0.000999787774
0	184	6.188850446534	0.001000446534
0	187	6.287947629787	0.000999629787
0	190	6.422504057898	0.001000057898
0	193	6.523731216948	0.001000216948
0	196	6.614283125917	0.001000125917
0	199	6.70296702031	0.00100002031
0	202	6.79788806152	0.00100006152
0	205	6.933230749192	0.000999749192
0	208	7.053272087892	0.001000087892
0	211	7.157414580392	0.000999580392
0	214	7.179034349531	0.001000349531
0	217	7.275584184145	0.001000184145
0	220	7.413005512557	0.000999512557
0	227	7.564782818916	0.000999818916
0	231	7.651010922528	0.000999922528
0	235	7.694483447237	0.001000447237
0	238	7.756709478958	0.001000478958
0	241	7.894906609459	0.000999609459
0	244	8.100318435437	0.001000435437
0	247	8.151445715338	0.000999715338
0	250	8.17493056266	0.00099956266
0	253	8.245866918843	0.000999918843
0	256	8.367784546432	0.000999546432
0	259	8.578126596005	0.000999596005
0	262	8.626911227288	0.001000227288
0	265	8.630626707174	0.000999707174
0	268	8.773805186525	0.001000186525
0	271	8.88348455301	0.00099955301
0	274	9.070629151931	0.001000151931
0	277	9.0874236617	0.0009996617
0	280	9.163018611725	0.000999611725
0	283	9.251727248938	0.001000248938
0	286	9.345484700962	0.000999700962
0	289	9.574152807635	0.000999807635
0	292	9.614613419978	0.001000419978
0	295	9.624979540519	0.000999540519
0	298	9.735145787103	0.000999787103
0	301	9.815595435072	0.001000435072
1	3	0.625341413612	0.001000413612
1	6	0.648920624586	0.000999624586
1	9	0.729298356989	0.001000356989
1	12	1.105188871594	0.000999871594
1	15	1.138396058673	0.001000058673
1	18	1.197869030641	0.001000030641
1	21	1.283668410568	0.001000410568
1	24	1.30849336211	0.00100036211
1	27	1.655091545498	0.000999545498
1	30	1.65718133184	0.00100033184

