version 3
run Attack20_record-0-20250915-22:43:51-99421
attr configname Attack20_record
attr datetime 20250915-22:43:51
attr datetimef 20250915-224351
attr experiment Attack20_record
attr inifile run_record.ini
attr iterationvars ""
attr iterationvarsd ""
attr iterationvarsf ""
attr measurement ""
attr network ned.LightIoTNetwork
attr processid 99421
attr repetition 0
attr replication #0
attr resultdir results
attr runnumber 0
attr seedset 103
config **.result-recording-modes all
config **.scalar-recording true
config **.vector-recording true
config output-scalar-file results/delay/Attack20_record_s103.sca
config output-vector-file results/delay/Attack20_record_s103.vec
config record-eventlog false
config seed-set 103
config network ned.LightIoTNetwork
config LightIoTNetwork.numSensorNodes 20
config **.sensor[*].mode "\"Secure\""
config **.fakeNode.enabled true
config **.fakeNode.validMac true
config **.gateway.securityEnabled true
config **.gateway.hmacWindow 1s
config description "Secure Mode Simulation (includes all scenarios)"
config network ned.LightIoTNetwork
config ned-path .
config sim-time-limit 10s
config record-eventlog true
config cmdenv-express-mode false
config network ned.LightIoTNetwork
config sim-time-limit 10s
config output-scalar-file results/secure_output.sca
config output-vector-file results/secure_output.vec
config network LightIoTNetwork
config sim-time-limit 10s
config output-scalar-file results/nosecure_output.sca
config output-vector-file results/nosecure_output.vec
config network LightIoTNetwork
config sim-time-limit 10s
config output-scalar-file results/attack_output.sca
config output-vector-file results/attack_output.vec
config output-scalar-file results/Attack20_record-0.sca
config output-vector-file results/Attack20_record-0.vec
config **.scalar-recording true
config **.vector-recording true
config **.statistic-recording true
config **.result-recording-modes all
config rng-class cMersenneTwister
config num-rngs 1
config seed-set 123
config output-scalar-file results/Attack20_record-0.sca
config output-vector-file results/Attack20_record-0.vec
config **.scalar-recording true
config **.vector-recording true
config **.result-recording-modes all
config **.sensor[*].aesKeyHex "\"00112233445566778899AABBCCDDEEFF\""
config **.gateway.aesKeyHex "\"00112233445566778899AABBCCDDEEFF\""
config **.fakeNode.aesKeyHex "\"00112233445566778899AABBCCDDEEFF\""
config **.sensor[*].sendInterval 0.5s
config **.sensor[*].mode "\"Secure\""
config **.gateway.procDelay 1ms
config **.gateway.hmacWindow 1s
config **.gateway.costForward_mJ 5
config **.gateway.costVerify_mJ 5
config **.gateway.batteryInit_mJ 5000
config **.gateway.securityEnabled true
config **.gateway.checkHmac true
config **.gateway.checkFreshness true
config **.gateway.checkDuplicate true
config **.gateway.duplicateMethod "\"set\""
config **.gateway.bloomBits 16384
config **.gateway.bloomHashes 3
config **.gateway.sbfBits 16384
config **.gateway.sbfHashes 3
config **.gateway.sbfDecay 0.02
config **.fakeNode.enabled false
config **.fakeNode.attackMode 1
config **.fakeNode.replayInterval 2.5s
config **.fakeNode.validMac true
config **.fakeNode.replayId 100000
config **.fakeNode.replayTsUs 500000
config **.fakeNode.dupBurstLen 4
config **.fakeNode.dupBurstGap 200ms
config **.fakeNode.outOfOrderJitter 80ms
config sim-time-limit 10s

vector 0 LightIoTNetwork.cloud e2eDelay_valid ETV
vector 1 LightIoTNetwork.cloud e2eDelay_debug ETV
0	3	0.554893373813	0.001000373813
0	6	0.582386966398	0.000999966398
0	9	0.589723147986	0.001000147986
0	12	0.671943690697	0.000999690697
0	15	0.675215261592	0.001000261592
0	18	0.701894376729	0.001000376729
0	21	0.760094016859	0.001000016859
0	24	0.808120253332	0.001000253332
0	27	0.879734628903	0.000999628903
0	30	0.9331112053	0.0010002053
0	33	0.960353750339	0.000999750339
0	36	0.981971808545	0.000999808545
0	39	1.039923703809	0.000999703809
0	42	1.088171261432	0.001000261432
0	45	1.098100333916	0.001000333916
0	48	1.127175899431	0.000999899431
0	51	1.133202210161	0.001000210161
0	54	1.182792275514	0.001000275514
0	57	1.189698133873	0.001000133873
0	60	1.212791886879	0.000999886879
0	63	1.29839782412	0.00099982412
0	66	1.310469065396	0.001000065396
0	69	1.32254810708	0.00100010708
0	72	1.323684763698	0.000999763698
0	75	1.325356590118	0.000999590118
0	78	1.328632244909	0.001000244909
0	83	1.383909465837	0.001000465837
0	84	1.384394203847	0.001000203847
0	87	1.394767298665	0.001000298665
0	90	1.396175880753	0.000999880753
0	93	1.465627799974	0.000999799974
0	96	1.502969792461	0.000999792461
0	99	1.518379546608	0.000999546608
0	102	1.573898494127	0.001000494127
0	105	1.602085500745	0.000999500745
0	108	1.625781898339	0.000999898339
0	111	1.64598129217	0.00100029217
0	114	1.715497120422	0.001000120422
0	117	1.720620516919	0.000999516919
0	120	1.738282755902	0.000999755902
0	123	1.774500252794	0.001000252794
0	126	1.811333131719	0.001000131719
0	129	1.814076945464	0.000999945464
0	132	1.823515560198	0.000999560198
0	135	1.837648404412	0.001000404412
0	140	1.870611198967	0.001000198967
0	141	1.871172875444	0.000999875444
0	144	1.905790526396	0.000999526396
0	147	1.90812707804	0.00100007804
0	150	1.923615348385	0.001000348385
0	153	1.943615967617	0.000999967617
0	156	1.962217755778	0.000999755778
0	159	1.983456360432	0.001000360432
0	162	2.056215583672	0.000999583672
0	165	2.064125590352	0.000999590352
0	168	2.117265344923	0.001000344923
0	171	2.134750548633	0.000999548633
0	174	2.177038408582	0.001000408582
0	177	2.227102181688	0.001000181688
0	180	2.247886195172	0.001000195172
0	185	2.264344787108	0.000999787108
0	186	2.264685404905	0.001000404905
0	189	2.267309276991	0.001000276991
0	192	2.324569855373	0.000999855373
0	195	2.331911345012	0.001000345012
0	198	2.337283739237	0.000999739237
0	201	2.342539266985	0.001000266985
0	204	2.386729518812	0.000999518812
0	207	2.390600064652	0.001000064652
0	211	2.408677729894	0.000999729894
0	214	2.415805260627	0.001000260627
0	217	2.437165142665	0.001000142665
0	219	2.472814055694	1.972814055694
0	223	2.530833673849	0.000999673849
0	227	2.583210863801	0.000999863801
0	230	2.590555291134	0.001000291134
0	235	2.622396366438	0.001000366438
0	238	2.629667614027	0.000999614027
0	241	2.640209407568	0.001000407568
0	244	2.724007156118	0.001000156118
0	247	2.746776384301	0.001000384301
0	250	2.772586768074	0.000999768074
0	253	2.774983777197	0.000999777197
0	256	2.805766805516	0.000999805516
0	259	2.825673690274	0.000999690274
0	264	2.844849475355	0.001000475355
0	265	2.845237622269	0.000999622269
0	268	2.848566628317	0.000999628317
0	271	2.896651299506	0.001000299506
0	274	2.909589832205	0.000999832205
0	277	2.926849251869	0.001000251869
0	280	2.939154840423	0.000999840423
0	283	2.94936589708	0.00099989708
0	286	3.034219435974	0.001000435974
0	289	3.074764196854	0.001000196854
0	292	3.111036600451	0.000999600451
0	297	3.126828724681	0.000999724681
0	298	3.127276317217	0.001000317217
0	301	3.17478878817	0.00099978817
0	304	3.196164363925	0.001000363925
0	307	3.204420307511	0.001000307511
0	310	3.228838374161	0.001000374161
0	313	3.240234313672	0.001000313672
0	316	3.303220408525	0.001000408525
0	319	3.329425674396	0.000999674396
0	322	3.330973199567	0.001000199567
0	325	3.351161744956	0.000999744956
0	328	3.368473200173	0.001000200173
0	331	3.374189845914	0.000999845914
0	334	3.381010606116	0.000999606116
0	337	3.396266036574	0.001000036574
0	340	3.471111756167	0.000999756167
0	343	3.495803233654	0.001000233654
0	346	3.502606332744	0.001000332744
0	349	3.567548307963	0.001000307963
0	352	3.58968511615	0.00100011615
0	355	3.617337925801	0.000999925801
0	358	3.640349177829	0.001000177829
0	361	3.641822468116	0.001000468116
0	364	3.682634952872	0.000999952872
0	367	3.715556242293	0.001000242293
0	370	3.717468298226	0.001000298226
0	373	3.733245504391	0.000999504391
0	376	3.782623743148	0.000999743148
0	379	3.827096970448	0.000999970448
0	382	3.846855261036	0.001000261036
0	385	3.852596665825	0.000999665825
0	388	3.853632632991	0.000999632991
0	391	3.870654950219	0.000999950219
0	394	3.89154886063	0.00099986063
0	397	3.900402509747	0.000999509747
0	400	3.923962451936	0.001000451936
0	403	3.956142480461	0.001000480461
0	406	3.972969674877	0.000999674877
0	409	4.093859332777	0.001000332777
0	412	4.127030480351	0.001000480351
0	415	4.150480519444	0.000999519444
0	418	4.15908639326	0.00100039326
0	421	4.167125316639	0.001000316639
0	424	4.183272747578	0.000999747578
0	427	4.188079133303	0.001000133303
0	430	4.236635700775	0.000999700775
0	433	4.240997875528	0.000999875528
0	436	4.261841364484	0.001000364484
0	439	4.316341945574	0.000999945574
0	442	4.321342931988	0.000999931988
0	445	4.325682429642	0.001000429642
0	448	4.357608401053	0.001000401053
0	451	4.371606683707	0.000999683707
0	454	4.380619467748	0.001000467748
0	457	4.403465354208	0.001000354208
0	462	4.445797427231	0.001000427231
0	463	4.446642752736	0.000999752736
0	466	4.47977144583	0.00100044583
0	469	4.613968381286	0.001000381286
0	472	4.617650008713	0.001000008713
0	475	4.621256795758	0.000999795758
0	478	4.659712411321	0.001000411321
0	481	4.668926524395	0.000999524395
0	484	4.680348618141	0.000999618141
0	487	4.721355751179	0.000999751179
0	492	4.733285393332	0.001000393332
0	493	4.733368713641	0.000999713641
0	496	4.75914877369	0.00099977369
0	499	4.823308815923	0.000999815923
0	502	4.829396472427	0.001000472427
0	505	4.831986836972	0.000999836972
0	508	4.849300539795	0.000999539795
0	511	4.856697160143	0.001000160143
0	514	4.86484835604	0.00100035604
0	517	4.8708469694	0.0009999694
0	521	4.937486688117	0.000999688117
0	525	4.967006010026	0.001000010026
0	528	4.978600782946	0.000999782946
0	534	5.091750259488	0.001000259488
0	537	5.092922823573	0.000999823573
0	541	5.135915379552	0.001000379552
0	544	5.16249129658	0.00100029658
0	547	5.171689276022	0.001000276022
0	550	5.191679587982	0.000999587982
0	553	5.198745105135	0.001000105135
0	556	5.202805866325	0.000999866325
0	559	5.275359080033	0.001000080033
0	564	5.304728744619	0.000999744619
0	565	5.304739037481	0.001000037481
0	568	5.312931726337	0.000999726337
0	571	5.345935744256	0.000999744256
0	574	5.369628751044	0.000999751044
0	577	5.389275144831	0.001000144831
0	580	5.391475252411	0.001000252411
0	583	5.394437505419	0.000999505419
0	586	5.41023650083	0.00099950083
0	589	5.441043731452	0.000999731452
0	592	5.500294003519	0.001000003519
0	595	5.590422637505	0.000999637505
0	598	5.595489531592	0.000999531592
0	601	5.617125038336	0.001000038336
0	604	5.673591270133	0.001000270133
0	607	5.697466605598	0.000999605598
0	610	5.701746647943	0.000999647943
0	613	5.709749326177	0.001000326177
0	616	5.731935455627	0.001000455627
0	619	5.758967096962	0.001000096962
0	622	5.777645289734	0.001000289734
0	625	5.82091744258	0.00100044258
0	628	5.841566654225	0.000999654225
0	631	5.843317453586	0.001000453586
0	636	5.854433893272	0.000999893272
0	637	5.85538145129	0.00100045129
0	640	5.867435633622	0.000999633622
0	643	5.891311335329	0.001000335329
0	646	5.892695408663	0.001000408663
0	649	5.983945580803	0.000999580803
0	652	6.047543447162	0.001000447162
0	655	6.087888927245	0.000999927245
0	658	6.12665711711	0.00100011711
0	661	6.132494061674	0.001000061674
0	664	6.150362884578	0.000999884578
0	667	6.18932365237	0.00099965237
0	670	6.194527862638	0.000999862638
0	673	6.205428951023	0.000999951023
0	676	6.239861127828	0.001000127828
0	679	6.266855239051	0.001000239051
0	682	6.308724707364	0.000999707364
0	685	6.321057188021	0.001000188021
0	688	6.32232955296	0.00099955296
0	691	6.333644899097	0.000999899097
0	694	6.362203474901	0.001000474901
0	697	6.368578855763	0.000999855763
0	700	6.41466088516	0.00099988516
0	703	6.427185240806	0.001000240806
0	706	6.434192161144	0.001000161144
0	709	6.508354384685	0.001000384685
0	712	6.530714717017	0.000999717017
0	715	6.5516021071	0.0010001071
0	718	6.579038681554	0.000999681554
0	721	6.650893642054	0.000999642054
0	724	6.656632483845	0.001000483845
0	727	6.706955976875	0.000999976875
0	730	6.731237088166	0.001000088166
0	733	6.735320488873	0.001000488873
0	736	6.742876247573	0.001000247573
0	739	6.770767383322	0.001000383322
0	742	6.841115753096	0.000999753096
0	745	6.843346190755	0.001000190755
0	748	6.84627148793	0.00100048793
0	751	6.857015852932	0.000999852932
0	754	6.870623181713	0.001000181713
0	757	6.876243126904	0.001000126904
0	760	6.892864609718	0.000999609718
0	763	6.930609150695	0.001000150695
0	766	6.976377579545	0.000999579545
0	769	6.982594522578	0.000999522578
0	772	7.050739808775	0.000999808775
0	775	7.0588708251	0.0009998251
0	778	7.078088854975	0.000999854975
0	781	7.109052426579	0.001000426579
0	784	7.117303057806	0.001000057806
0	787	7.229489227522	0.001000227522
0	790	7.242105379748	0.001000379748
0	793	7.243847703047	0.000999703047
0	796	7.273334799727	0.000999799727
0	799	7.280769294918	0.001000294918
0	802	7.314833019277	0.001000019277
0	805	7.33652899377	0.00099999377
0	808	7.347758172033	0.001000172033
0	811	7.353186134737	0.001000134737
0	814	7.38647176316	0.00099976316
0	817	7.398077496536	0.001000496536
0	820	7.400844059697	0.001000059697
0	824	7.408004605047	0.000999605047
0	831	7.480160328746	0.001000328746
0	832	7.480228929523	0.000999929523
0	835	7.546694110474	0.001000110474
0	839	7.565998034923	0.001000034923
0	843	7.584162323734	0.001000323734
0	846	7.604248316446	0.001000316446
0	849	7.638583540988	0.000999540988
0	853	7.716972020362	0.001000020362
0	856	7.728744901971	0.000999901971
0	859	7.737077242088	0.001000242088
0	862	7.747919870073	0.000999870073
0	865	7.794239320256	0.001000320256
0	868	7.807220051202	0.001000051202
0	871	7.827583777438	0.000999777438
0	874	7.859543093759	0.001000093759
0	879	7.878003588901	0.000999588901
0	880	7.878571702608	0.000999702608
0	883	7.892164583713	0.000999583713
0	886	7.896989085221	0.001000085221
0	889	7.93700873698	0.00099973698
0	892	7.939927106652	0.001000106652
0	895	8.009922272596	0.001000272596
0	898	8.018863111944	0.001000111944
0	901	8.07149719803	0.00100019803
0	904	8.0826242347	0.0010002347
0	907	8.110873098648	0.001000098648
0	910	8.168974558382	0.000999558382
0	913	8.179105226577	0.001000226577
0	916	8.202685739285	0.000999739285
0	919	8.208007229257	0.001000229257
0	922	8.210218256456	0.001000256456
0	925	8.293529623185	0.000999623185
0	928	8.295064039341	0.001000039341
0	931	8.320643397164	0.001000397164
0	934	8.330620218347	0.001000218347
0	937	8.355232751321	0.000999751321
0	940	8.357194408075	0.001000408075
0	943	8.397582653443	0.000999653443
0	946	8.401904681674	0.000999681674
0	949	8.422597287501	0.001000287501
0	952	8.455574167216	0.001000167216
0	955	8.511737336289	0.001000336289
0	958	8.541254455829	0.001000455829
0	961	8.551665107089	0.001000107089
0	964	8.611112960403	0.000999960403
0	967	8.63088384904	0.00099984904
0	970	8.634983522679	0.000999522679
0	973	8.65253652029	0.00099952029
0	976	8.676834538251	0.000999538251
0	979	8.717079235309	0.001000235309
0	982	8.723032830795	0.000999830795
0	985	8.787192096793	0.001000096793
0	988	8.793006728307	0.000999728307
0	991	8.809147916478	0.000999916478
0	994	8.818875736067	0.000999736067
0	997	8.866112559474	0.000999559474
0	1000	8.894394410587	0.001000410587
0	1003	8.901213511893	0.000999511893
0	1006	8.921577574894	0.000999574894
0	1009	8.925783768459	0.000999768459
0	1012	8.927799139939	0.001000139939
0	1015	9.006309233559	0.001000233559
0	1018	9.01254559306	0.00099959306
0	1021	9.02686040676	0.00100040676
0	1026	9.105162677473	0.000999677473
0	1027	9.106060899375	0.000999899375
0	1030	9.108756449677	0.001000449677
0	1033	9.171079580088	0.000999580088
0	1036	9.179082614904	0.000999614904
0	1039	9.211033925528	0.000999925528
0	1042	9.229466521204	0.000999521204
0	1045	9.287055996548	0.000999996548
0	1048	9.29765666672	0.00099966672
0	1051	9.300237250814	0.001000250814
0	1054	9.316205158456	0.001000158456
0	1057	9.325410766573	0.000999766573
0	1060	9.364459344534	0.001000344534
0	1063	9.396278490429	0.001000490429
0	1066	9.407225562655	0.000999562655
0	1069	9.417075601475	0.000999601475
0	1072	9.42362516974	0.00100016974
0	1075	9.513587928121	0.000999928121
0	1078	9.525159195438	0.001000195438
0	1081	9.542230965265	0.000999965265
0	1084	9.564278392146	0.001000392146
0	1087	9.61855212238	0.00100012238
0	1090	9.628401289601	0.001000289601
0	1093	9.650865396972	0.001000396972
0	1100	9.67928734943	0.00100034943
0	1101	9.679563043428	0.001000043428
0	1102	9.68009384186	0.00099984186
0	1107	9.804961671261	0.000999671261
0	1110	9.805866380919	0.001000380919
0	1111	9.80670358166	0.00099958166
0	1114	9.826551998357	0.000999998357
0	1117	9.868027057405	0.001000057405
0	1120	9.881280403583	0.001000403583
0	1123	9.890805069147	0.001000069147
0	1126	9.894656427902	0.001000427902
0	1129	9.903014912503	0.000999912503
0	1133	9.93010243494	0.00100043494
0	1137	9.996386477512	0.001000477512
1	3	0.554893373813	0.001000373813
1	6	0.582386966398	0.000999966398
1	9	0.589723147986	0.001000147986
1	12	0.671943690697	0.000999690697
1	15	0.675215261592	0.001000261592
1	18	0.701894376729	0.001000376729
1	21	0.760094016859	0.001000016859
1	24	0.808120253332	0.001000253332
1	27	0.879734628903	0.000999628903
1	30	0.9331112053	0.0010002053

