version 3
run Attack50_record-0-20250915-22:43:51-99451
attr configname Attack50_record
attr datetime 20250915-22:43:51
attr datetimef 20250915-224351
attr experiment Attack50_record
attr inifile run_record.ini
attr iterationvars ""
attr iterationvarsd ""
attr iterationvarsf ""
attr measurement ""
attr network ned.LightIoTNetwork
attr processid 99451
attr repetition 0
attr replication #0
attr resultdir results
attr runnumber 0
attr seedset 104
config **.result-recording-modes all
config **.scalar-recording true
config **.vector-recording true
config output-scalar-file results/delay/Attack50_record_s104.sca
config output-vector-file results/delay/Attack50_record_s104.vec
config record-eventlog false
config seed-set 104
config network ned.LightIoTNetwork
config LightIoTNetwork.numSensorNodes 50
config **.sensor[*].mode "\"Secure\""
config **.fakeNode.enabled true
config **.fakeNode.validMac true
config **.gateway.securityEnabled true
config **.gateway.hmacWindow 3s
config description "Secure Mode Simulation (includes all scenarios)"
config network ned.LightIoTNetwork
config ned-path .
config sim-time-limit 10s
config record-eventlog true
config cmdenv-express-mode false
config network ned.LightIoTNetwork
config sim-time-limit 10s
config output-scalar-file results/secure_output.sca
config output-vector-file results/secure_output.vec
config network LightIoTNetwork
config sim-time-limit 10s
config output-scalar-file results/nosecure_output.sca
config output-vector-file results/nosecure_output.vec
config network LightIoTNetwork
config sim-time-limit 10s
config output-scalar-file results/attack_output.sca
config output-vector-file results/attack_output.vec
config output-scalar-file results/Attack50_record-0.sca
config output-vector-file results/Attack50_record-0.vec
config **.scalar-recording true
config **.vector-recording true
config **.statistic-recording true
config **.result-recording-modes all
config rng-class cMersenneTwister
config num-rngs 1
config seed-set 123
config output-scalar-file results/Attack50_record-0.sca
config output-vector-file results/Attack50_record-0.vec
config **.scalar-recording true
config **.vector-recording true
config **.result-recording-modes all
config **.sensor[*].aesKeyHex "\"00112233445566778899AABBCCDDEEFF\""
config **.gateway.aesKeyHex "\"00112233445566778899AABBCCDDEEFF\""
config **.fakeNode.aesKeyHex "\"00112233445566778899AABBCCDDEEFF\""
config **.sensor[*].sendInterval 0.5s
config **.sensor[*].mode "\"Secure\""
config **.gateway.procDelay 1ms
config **.gateway.hmacWindow 1s
config **.gateway.costForward_mJ 5
config **.gateway.costVerify_mJ 5
config **.gateway.batteryInit_mJ 5000
config **.gateway.securityEnabled true
config **.gateway.checkHmac true
config **.gateway.checkFreshness true
config **.gateway.checkDuplicate true
config **.gateway.duplicateMethod "\"set\""
config **.gateway.bloomBits 16384
config **.gateway.bloomHashes 3
config **.gateway.sbfBits 16384
config **.gateway.sbfHashes 3
config **.gateway.sbfDecay 0.02
config **.fakeNode.enabled false
config **.fakeNode.attackMode 1
config **.fakeNode.replayInterval 2.5s
config **.fakeNode.validMac true
config **.fakeNode.replayId 100000
config **.fakeNode.replayTsUs 500000
config **.fakeNode.dupBurstLen 4
config **.fakeNode.dupBurstGap 200ms
config **.fakeNode.outOfOrderJitter 80ms
config sim-time-limit 10s

vector 0 LightIoTNetwork.cloud e2eDelay_valid ETV
vector 1 LightIoTNetwork.cloud e2eDelay_debug ETV
0	3	0.506300196121	0.001000196121
0	6	0.524423068691	0.001000068691
0	9	0.569804902723	0.000999902723
0	12	0.575260412948	0.001000412948
0	15	0.59412301199	0.00100001199
0	18	0.624202173272	0.001000173272
0	21	0.625341413612	0.001000413612
0	24	0.637317524593	0.000999524593
0	27	0.648920624586	0.000999624586
0	32	0.668102748062	0.000999748062
0	33	0.668532556457	0.000999556457
0	36	0.676751712639	0.000999712639
0	39	0.68670673652	0.00099973652
0	42	0.697108672302	0.000999672302
0	45	0.729298356989	0.001000356989
0	48	0.737683644122	0.000999644122
0	51	0.74264786702	0.00099986702
0	54	0.75789594401	0.00099994401
0	57	0.782470493181	0.001000493181
0	60	0.799474579817	0.000999579817
0	63	0.829458353877	0.001000353877
0	68	0.895754340872	0.001000340872
0	69	0.896687266253	0.001000266253
0	72	0.906439523747	0.000999523747
0	75	0.916363545995	0.000999545995
0	78	0.919054246577	0.001000246577
0	81	0.921541570755	0.000999570755
0	84	0.930482975509	0.000999975509
0	87	0.942304272041	0.001000272041
0	90	0.968293157056	0.001000157056
0	93	0.986825479729	0.001000479729
0	96	1.014338394696	0.001000394696
0	99	1.017358914156	0.000999914156
0	102	1.051773648917	0.000999648917
0	105	1.054153293161	0.001000293161
0	108	1.078444366342	0.001000366342
0	111	1.084026640583	0.000999640583
0	116	1.095481895212	0.000999895212
0	117	1.096455294708	0.001000294708
0	120	1.101545777706	0.000999777706
0	123	1.108729265652	0.001000265652
0	126	1.125966446031	0.001000446031
0	129	1.127741238451	0.001000238451
0	132	1.137249561398	0.000999561398
0	135	1.139179364078	0.001000364078
0	138	1.149454732867	0.000999732867
0	141	1.152420118287	0.001000118287
0	144	1.157480666995	0.000999666995
0	147	1.158906237058	0.001000237058
0	152	1.169853878509	0.000999878509
0	153	1.170405014999	0.001000014999
0	156	1.196240923063	0.000999923063
0	159	1.198946983995	0.000999983995
0	162	1.202392532792	0.000999532792
0	165	1.228623933181	0.000999933181
0	168	1.232301385676	0.001000385676
0	171	1.234468180802	0.001000180802
0	174	1.238272238754	0.001000238754
0	177	1.255367252975	0.001000252975
0	180	1.260595073527	0.001000073527
0	183	1.271984060364	0.001000060364
0	186	1.273137310356	0.001000310356
0	189	1.283668410568	0.001000410568
0	192	1.30849336211	0.00100036211
0	195	1.321268647047	0.000999647047
0	198	1.349634943366	0.000999943366
0	201	1.37519969202	0.00099969202
0	204	1.397608899976	0.000999899976
0	207	1.406627697986	0.000999697986
0	210	1.408179098134	0.001000098134
0	213	1.409870914648	0.000999914648
0	216	1.417166215041	0.001000215041
0	219	1.422079035406	0.001000035406
0	222	1.431728884414	0.000999884414
0	225	1.445904416939	0.001000416939
0	228	1.462185701052	0.000999701052
0	231	1.47232976749	0.00099976749
0	236	1.47980388808	0.00099988808
0	237	1.480421821865	0.000999821865
0	240	1.496904538082	0.000999538082
0	243	1.498484208969	0.001000208969
0	246	1.500026739039	0.000999739039
0	249	1.529787492402	0.001000492402
0	252	1.533674745819	0.000999745819
0	255	1.535898067894	0.001000067894
0	258	1.57440859694	0.00099959694
0	261	1.600287277158	0.001000277158
0	264	1.604400782915	0.000999782915
0	267	1.606413561454	0.000999561454
0	272	1.609164058462	0.001000058462
0	273	1.610127498371	0.001000498371
0	278	1.61597182243	0.00099982243
0	281	1.616898678336	0.000999678336
0	282	1.616987524646	0.000999524646
0	285	1.623417904576	0.000999904576
0	288	1.628635724703	0.000999724703
0	291	1.637081394227	0.001000394227
0	294	1.653037877589	0.000999877589
0	297	1.662356434435	0.001000434435
0	300	1.664392680744	0.000999680744
0	303	1.674606243636	0.001000243636
0	306	1.676869046408	0.001000046408
0	309	1.685418934677	0.000999934677
0	312	1.696429109596	0.001000109596
0	315	1.706512399436	0.001000399436
0	320	1.718309992109	0.000999992109
0	321	1.719030531611	0.000999531611
0	324	1.721690776919	0.000999776919
0	327	1.725477987085	0.000999987085
0	334	1.771910393214	0.001000393214
0	335	1.772329361503	0.001000361503
0	336	1.772608201228	0.001000201228
0	339	1.77970132695	0.00100032695
0	342	1.794484082399	0.001000082399
0	345	1.843737071519	0.001000071519
0	348	1.852778171794	0.001000171794
0	351	1.873631667764	0.000999667764
0	354	1.876070265191	0.001000265191
0	357	1.884829782484	0.000999782484
0	360	1.893103193235	0.001000193235
0	363	1.906526384502	0.001000384502
0	368	1.927816159953	0.001000159953
0	369	1.927995715522	0.000999715522
0	376	1.949126033694	0.001000033694
0	377	1.949246591934	0.000999591934
0	378	1.949523408454	0.001000408454
0	381	1.958221154449	0.001000154449
0	384	1.981632434669	0.001000434669
0	387	1.984281361032	0.001000361032
0	390	1.999109798715	0.000999798715
0	393	2.014489952521	0.000999952521
0	396	2.019405676307	0.000999676307
0	399	2.026881916564	0.000999916564
0	402	2.044023084896	0.001000084896
0	405	2.056697617564	0.000999617564
0	408	2.062648517312	0.000999517312
0	411	2.068033026763	0.001000026763
0	414	2.072460137982	0.001000137982
0	417	2.086397108504	0.001000108504
0	420	2.089685428817	0.001000428817
0	423	2.110864504425	0.000999504425
0	426	2.124411762737	0.000999762737
0	429	2.135572681924	0.000999681924
0	432	2.147085403511	0.001000403511
0	435	2.15063649381	0.00100049381
0	438	2.1529700089	0.0010000089
0	441	2.155876248841	0.001000248841
0	444	2.168382966331	0.000999966331
0	447	2.173722178046	0.001000178046
0	452	2.179344320692	0.001000320692
0	453	2.179685609693	0.000999609693
0	456	2.186027029784	0.001000029784
0	459	2.192474343673	0.001000343673
0	462	2.194005104806	0.001000104806
0	465	2.202112430147	0.001000430147
0	468	2.208283316249	0.001000316249
0	471	2.230571671039	0.000999671039
0	474	2.245654922419	0.000999922419
0	479	2.249962282506	0.001000282506
0	480	2.250213926727	0.000999926727
0	485	2.254219789336	0.000999789336
0	486	2.255126074677	0.001000074677
0	489	2.274323238898	0.001000238898
0	492	2.30449009228	0.00100009228
0	495	2.319798497529	0.001000497529
0	498	2.325909831468	0.000999831468
0	501	2.337665663659	0.000999663659
0	504	2.341263700322	0.000999700322
0	507	2.347126010361	0.001000010361
0	510	2.373108204291	0.001000204291
0	513	2.378744982951	0.000999982951
0	516	2.426454677548	0.000999677548
0	519	2.428696417598	0.001000417598
0	522	2.441501591447	0.000999591447
0	525	2.446380914863	0.000999914863
0	528	2.460997263015	0.001000263015
0	531	2.47833090038	0.00099990038
0	534	2.480932583892	0.000999583892
0	539	2.483374359923	0.001000359923
0	540	2.483983544748	0.000999544748
0	543	2.515405033691	0.001000033691
0	546	2.52184967508	0.00099967508
0	549	2.529077787696	0.000999787696
0	552	2.537303412728	0.001000412728
0	555	2.550976611464	0.000999611464
0	560	2.553178299776	0.001000299776
0	561	2.554123189882	0.001000189882
0	564	2.589536108238	0.001000108238
0	567	2.598805896145	0.000999896145
0	570	2.601653215079	0.001000215079
0	573	2.631612639966	0.000999639966
0	580	2.635009638265	0.000999638265
0	581	2.635184434195	0.001000434195
0	582	2.635319468379	0.001000468379
0	585	2.645608229631	0.001000229631
0	588	2.651429801945	0.000999801945
0	591	2.652899957237	0.000999957237
0	596	2.660760047356	0.001000047356
0	597	2.66168023059	0.00100023059
0	600	2.665404070588	0.001000070588
0	603	2.669759523822	0.000999523822
0	606	2.671726748578	0.000999748578
0	609	2.689537748088	0.000999748088
0	612	2.69424665314	0.00099965314
0	615	2.705923791251	0.000999791251
0	618	2.7245007409	0.0009997409
0	621	2.730628467654	0.001000467654
0	624	2.738295077625	0.001000077625
0	629	2.7595515043	0.0009995043
0	630	2.759734916453	0.000999916453
0	633	2.772354630193	0.000999630193
0	636	2.782025908328	0.000999908328
0	641	2.783998088305	0.001000088305
0	642	2.784989907173	0.000999907173
0	645	2.7910101966	0.0010001966
0	648	2.805718003096	0.001000003096
0	651	2.807707441225	0.001000441225
0	654	2.846464175543	0.001000175543
0	657	2.860082744993	0.000999744993
0	662	2.861734740971	0.000999740971
0	663	2.861981175653	0.001000175653
0	666	2.907663596513	0.000999596513
0	669	2.912076195468	0.001000195468
0	673	2.937479888041	0.000999888041
0	676	2.93918896506	0.00099996506
0	679	2.946366971683	0.000999971683
0	684	2.95320191516	0.00099991516
0	685	2.953349366271	0.001000366271
0	688	2.965966628444	0.000999628444
0	690	2.976054910322	2.476054910322
0	693	2.984503282116	0.001000282116
0	697	2.998547043208	0.001000043208
0	700	3.019269260694	0.001000260694
0	703	3.028118434361	0.001000434361
0	707	3.052518913754	0.000999913754
0	710	3.064932693237	0.000999693237
0	713	3.078329918533	0.000999918533
0	716	3.093529297155	0.001000297155
0	719	3.100860562291	0.000999562291
0	722	3.110198391694	0.001000391694
0	725	3.111261232871	0.001000232871
0	728	3.119460022425	0.001000022425
0	731	3.122017360013	0.001000360013
0	734	3.136126431239	0.001000431239
0	739	3.150367176042	0.001000176042
0	742	3.163222740007	0.000999740007
0	745	3.170740406936	0.001000406936
0	750	3.178733544727	0.000999544727
0	751	3.179440299793	0.001000299793
0	756	3.183225820306	0.000999820306
0	757	3.183726178273	0.001000178273
0	762	3.192026204847	0.001000204847
0	763	3.192146120917	0.001000120917
0	766	3.196127035795	0.001000035795
0	769	3.204880596695	0.000999596695
0	772	3.210710620483	0.000999620483
0	775	3.217216968932	0.000999968932
0	778	3.22742151853	0.00099951853
0	781	3.262642537033	0.000999537033
0	786	3.266040622139	0.000999622139
0	787	3.266894983895	0.000999983895
0	790	3.282263698194	0.000999698194
0	793	3.288564264726	0.001000264726
0	796	3.292980194603	0.001000194603
0	799	3.29557514505	0.00100014505
0	802	3.304509802465	0.000999802465
0	805	3.317552036767	0.001000036767
0	808	3.327937423391	0.001000423391
0	813	3.347668659593	0.000999659593
0	814	3.348420245037	0.001000245037
0	817	3.395267625664	0.000999625664
0	820	3.396368484012	0.001000484012
0	823	3.398490157653	0.001000157653
0	826	3.399807897419	0.000999897419
0	829	3.410684073971	0.001000073971
0	832	3.420628977264	0.000999977264
0	835	3.439362424215	0.001000424215
0	838	3.457427460211	0.001000460211
0	841	3.471211493619	0.001000493619
0	844	3.478435671026	0.000999671026
0	847	3.48087646854	0.00100046854
0	852	3.493143518128	0.000999518128
0	853	3.494130194559	0.001000194559
0	856	3.530929401725	0.001000401725
0	861	3.557153515401	0.000999515401
0	862	3.557652692961	0.000999692961
0	865	3.563699009153	0.001000009153
0	868	3.591254726634	0.000999726634
0	871	3.60811545488	0.00100045488
0	874	3.6132269182	0.0009999182
0	877	3.62467149752	0.00100049752
0	880	3.626161124905	0.001000124905
0	883	3.633216652971	0.000999652971
0	888	3.636486795078	0.000999795078
0	889	3.637454914161	0.000999914161
0	892	3.641871733101	0.000999733101
0	895	3.65329634652	0.00100034652
0	898	3.658915331306	0.001000331306
0	901	3.666329295023	0.001000295023
0	904	3.673338531747	0.000999531747
0	907	3.685398580738	0.000999580738
0	910	3.687789758853	0.000999758853
0	913	3.697114367596	0.001000367596
0	916	3.705067984339	0.000999984339
0	919	3.712158040307	0.001000040307
0	922	3.732547006522	0.001000006522
0	925	3.741671963362	0.000999963362
0	928	3.745936683612	0.000999683612
0	931	3.751570339034	0.001000339034
0	934	3.761648825647	0.000999825647
0	937	3.767977190598	0.001000190598
0	940	3.779759106436	0.001000106436
0	945	3.782726435549	0.001000435549
0	946	3.783318392466	0.001000392466
0	949	3.784426870545	0.000999870545
0	952	3.806511438218	0.001000438218
0	959	3.809195203402	0.001000203402
0	960	3.809440603828	0.000999603828
0	961	3.80962636203	0.00100036203
0	964	3.845315642351	0.000999642351
0	967	3.851071192556	0.001000192556
0	970	3.860308631276	0.000999631276
0	973	3.907084231589	0.001000231589
0	978	3.916125567512	0.000999567512
0	979	3.916566181345	0.001000181345
0	982	3.929011478506	0.001000478506
0	987	3.934427061862	0.001000061862
0	988	3.934582589566	0.000999589566
0	993	3.938749054283	0.001000054283
0	994	3.938788081216	0.001000081216
0	997	3.944971466017	0.001000466017
0	1000	3.988093390198	0.001000390198
0	1005	4.006062137544	0.001000137544
0	1006	4.00649783823	0.00099983823
0	1009	4.013178477644	0.001000477644
0	1012	4.021133818477	0.000999818477
0	1015	4.03281653726	0.00099953726
0	1018	4.091771567519	0.000999567519
0	1021	4.099305890988	0.000999890988
0	1024	4.101783790905	0.000999790905
0	1027	4.117432117344	0.001000117344
0	1030	4.129783066245	0.001000066245
0	1033	4.141455038402	0.001000038402
0	1036	4.152913296315	0.001000296315
0	1039	4.154121209144	0.001000209144
0	1042	4.15681975791	0.00099975791
0	1045	4.16245645578	0.00100045578
0	1048	4.169277761014	0.000999761014
0	1051	4.174018189217	0.001000189217
0	1054	4.178238607498	0.000999607498
0	1057	4.183573033823	0.001000033823
0	1060	4.197789099391	0.001000099391
0	1063	4.203862568131	0.000999568131
0	1066	4.206766251287	0.001000251287
0	1069	4.220974737639	0.000999737639
0	1072	4.2256560978	0.0010000978
0	1075	4.232384670968	0.000999670968
0	1078	4.237456342297	0.001000342297
0	1081	4.249726128227	0.001000128227
0	1084	4.25546995017	0.00099995017
0	1087	4.260175707703	0.000999707703
0	1092	4.264270149636	0.001000149636
0	1093	4.265001278299	0.001000278299
0	1096	4.270201871543	0.000999871543
0	1099	4.284861701936	0.000999701936
0	1102	4.294545246079	0.001000246079
0	1105	4.302895890688	0.000999890688
0	1108	4.322292004548	0.001000004548
0	1111	4.326719033437	0.001000033437
0	1114	4.331313757295	0.000999757295
0	1117	4.334665550104	0.000999550104
0	1120	4.343154749832	0.000999749832
0	1123	4.394945958138	0.000999958138
0	1126	4.398487515443	0.000999515443
0	1129	4.404160786955	0.000999786955
0	1132	4.412617227433	0.001000227433
0	1135	4.425463235238	0.001000235238
0	1138	4.426723637059	0.000999637059
0	1141	4.435140930674	0.000999930674
0	1144	4.442238306672	0.001000306672
0	1147	4.444937486969	0.001000486969
0	1150	4.464331701024	0.000999701024
0	1153	4.488163811759	0.000999811759
0	1156	4.491036344552	0.001000344552
0	1159	4.509160611055	0.000999611055
0	1162	4.535532631306	0.000999631306
0	1165	4.548205721982	0.000999721982
0	1170	4.579491178969	0.001000178969
0	1171	4.579570609517	0.000999609517
0	1174	4.592546100726	0.001000100726
0	1177	4.626481156818	0.001000156818
0	1180	4.639058845069	0.000999845069
0	1183	4.641448346548	0.001000346548
0	1188	4.647671010252	0.001000010252
0	1189	4.648326306741	0.001000306741
0	1192	4.650334480149	0.001000480149
0	1197	4.654961667255	0.000999667255
0	1198	4.655762139288	0.001000139288
0	1201	4.668048019124	0.001000019124
0	1204	4.675505712137	0.000999712137
0	1207	4.679200246441	0.001000246441
0	1212	4.698117529274	0.000999529274
0	1213	4.698624854396	0.000999854396
0	1216	4.719028533785	0.000999533785
0	1219	4.723954158112	0.001000158112
0	1222	4.734741241949	0.001000241949
0	1227	4.755723673825	0.000999673825
0	1228	4.756053041386	0.001000041386
0	1231	4.764468784327	0.000999784327
0	1234	4.770698355952	0.001000355952
0	1237	4.771803481271	0.001000481271
0	1240	4.772859068539	0.001000068539
0	1243	4.776452322372	0.001000322372
0	1246	4.78260279903	0.00099979903
0	1249	4.80155585585	0.00099985585
0	1252	4.807242646324	0.000999646324
0	1255	4.815895412582	0.001000412582
0	1258	4.827023063553	0.001000063553
0	1261	4.828420356661	0.001000356661
0	1264	4.837786931987	0.000999931987
0	1267	4.851150342449	0.001000342449
0	1270	4.876214399817	0.001000399817
0	1273	4.884433821843	0.000999821843
0	1276	4.887201588996	0.000999588996
0	1279	4.894859859417	0.000999859417
0	1282	4.898530134954	0.001000134954
0	1285	4.913045410532	0.001000410532
0	1288	4.922787198678	0.001000198678
0	1291	4.939341877587	0.000999877587
0	1296	4.943191952792	0.000999952792
0	1297	4.943519238916	0.001000238916
0	1300	4.961848799278	0.000999799278
0	1303	4.9878852037	0.0010002037
0	1306	4.992966081039	0.001000081039
0	1309	4.996072817756	0.000999817756
0	1314	5.040578352612	0.001000352612
0	1315	5.041399289598	0.001000289598
0	1318	5.048681401809	0.001000401809
0	1321	5.071923186699	0.001000186699
0	1324	5.092332077257	0.001000077257
0	1327	5.099218015441	0.001000015441
0	1332	5.107836878391	0.000999878391
0	1333	5.108087792619	0.000999792619
0	1336	5.121976999845	0.000999999845
0	1341	5.125952648765	0.000999648765
0	1342	5.126388771063	0.000999771063
0	1345	5.158265840888	0.000999840888
0	1348	5.174174689246	0.000999689246
0	1351	5.176006634579	0.000999634579
0	1354	5.180571048986	0.001000048986
0	1357	5.191082542621	0.000999542621
0	1360	5.197167603904	0.000999603904
0	1363	5.211411118483	0.001000118483
0	1366	5.225232554694	0.000999554694
0	1369	5.227326111681	0.001000111681
0	1374	5.23162752278	0.00099952278
0	1375	5.231899125686	0.001000125686
0	1378	5.233257906232	0.000999906232
0	1381	5.264453783839	0.000999783839
0	1386	5.275523678351	0.000999678351
0	1387	5.276199972698	0.000999972698
0	1390	5.279362304833	0.001000304833
0	1393	5.281914896773	0.000999896773
0	1396	5.288228912697	0.000999912697
0	1399	5.298696543158	0.000999543158
0	1402	5.310191715415	0.000999715415
0	1405	5.32575621542	0.00100021542
0	1408	5.341662237886	0.001000237886
0	1411	5.347410820423	0.000999820423
0	1414	5.352135219634	0.001000219634
0	1419	5.356482782285	0.000999782285
0	1420	5.357392703508	0.000999703508
0	1423	5.3618018043	0.0009998043
0	1426	5.383101931003	0.000999931003
0	1429	5.398139907627	0.000999907627
0	1434	5.41442722252	0.00100022252
0	1435	5.414830765477	0.000999765477
0	1438	5.417293924256	0.000999924256
0	1441	5.419453690294	0.000999690294
0	1444	5.431185197525	0.001000197525
0	1447	5.433316442277	0.001000442277
0	1453	5.451886165421	0.001000165421
0	1454	5.452301600526	0.000999600526
0	1457	5.46623877494	0.00099977494
0	1460	5.479567987355	0.000999987355
0	1465	5.495460674189	0.000999674189
0	1468	5.520672370401	0.001000370401
0	1471	5.530811506136	0.000999506136
0	1475	5.546179223385	0.001000223385
0	1478	5.566570069941	0.001000069941
0	1481	5.570715192168	0.001000192168
0	1484	5.602185228163	0.001000228163
0	1487	5.605775605118	0.000999605118
0	1490	5.60870566361	0.00099966361
0	1494	5.623740477718	0.001000477718
0	1497	5.637457879772	0.000999879772
1	3	0.506300196121	0.001000196121
1	6	0.524423068691	0.001000068691
1	9	0.569804902723	0.000999902723
1	12	0.575260412948	0.001000412948
1	15	0.59412301199	0.00100001199
1	18	0.624202173272	0.001000173272
1	21	0.625341413612	0.001000413612
1	24	0.637317524593	0.000999524593
1	27	0.648920624586	0.000999624586
1	32	0.668102748062	0.000999748062

