version 3
run Attack50_record-0-20250915-22:43:51-99422
attr configname Attack50_record
attr datetime 20250915-22:43:51
attr datetimef 20250915-224351
attr experiment Attack50_record
attr inifile run_record.ini
attr iterationvars ""
attr iterationvarsd ""
attr iterationvarsf ""
attr measurement ""
attr network ned.LightIoTNetwork
attr processid 99422
attr repetition 0
attr replication #0
attr resultdir results
attr runnumber 0
attr seedset 103
config **.result-recording-modes all
config **.scalar-recording true
config **.vector-recording true
config output-scalar-file results/delay/Attack50_record_s103.sca
config output-vector-file results/delay/Attack50_record_s103.vec
config record-eventlog false
config seed-set 103
config network ned.LightIoTNetwork
config LightIoTNetwork.numSensorNodes 50
config **.sensor[*].mode "\"Secure\""
config **.fakeNode.enabled true
config **.fakeNode.validMac true
config **.gateway.securityEnabled true
config **.gateway.hmacWindow 3s
config description "Secure Mode Simulation (includes all scenarios)"
config network ned.LightIoTNetwork
config ned-path .
config sim-time-limit 10s
config record-eventlog true
config cmdenv-express-mode false
config network ned.LightIoTNetwork
config sim-time-limit 10s
config output-scalar-file results/secure_output.sca
config output-vector-file results/secure_output.vec
config network LightIoTNetwork
config sim-time-limit 10s
config output-scalar-file results/nosecure_output.sca
config output-vector-file results/nosecure_output.vec
config network LightIoTNetwork
config sim-time-limit 10s
config output-scalar-file results/attack_output.sca
config output-vector-file results/attack_output.vec
config output-scalar-file results/Attack50_record-0.sca
config output-vector-file results/Attack50_record-0.vec
config **.scalar-recording true
config **.vector-recording true
config **.statistic-recording true
config **.result-recording-modes all
config rng-class cMersenneTwister
config num-rngs 1
config seed-set 123
config output-scalar-file results/Attack50_record-0.sca
config output-vector-file results/Attack50_record-0.vec
config **.scalar-recording true
config **.vector-recording true
config **.result-recording-modes all
config **.sensor[*].aesKeyHex "\"00112233445566778899AABBCCDDEEFF\""
config **.gateway.aesKeyHex "\"00112233445566778899AABBCCDDEEFF\""
config **.fakeNode.aesKeyHex "\"00112233445566778899AABBCCDDEEFF\""
config **.sensor[*].sendInterval 0.5s
config **.sensor[*].mode "\"Secure\""
config **.gateway.procDelay 1ms
config **.gateway.hmacWindow 1s
config **.gateway.costForward_mJ 5
config **.gateway.costVerify_mJ 5
config **.gateway.batteryInit_mJ 5000
config **.gateway.securityEnabled true
config **.gateway.checkHmac true
config **.gateway.checkFreshness true
config **.gateway.checkDuplicate true
config **.gateway.duplicateMethod "\"set\""
config **.gateway.bloomBits 16384
config **.gateway.bloomHashes 3
config **.gateway.sbfBits 16384
config **.gateway.sbfHashes 3
config **.gateway.sbfDecay 0.02
config **.fakeNode.enabled false
config **.fakeNode.attackMode 1
config **.fakeNode.replayInterval 2.5s
config **.fakeNode.validMac true
config **.fakeNode.replayId 100000
config **.fakeNode.replayTsUs 500000
config **.fakeNode.dupBurstLen 4
config **.fakeNode.dupBurstGap 200ms
config **.fakeNode.outOfOrderJitter 80ms
config sim-time-limit 10s

vector 0 LightIoTNetwork.cloud e2eDelay_valid ETV
vector 1 LightIoTNetwork.cloud e2eDelay_debug ETV
0	3	0.50898260537	0.00099960537
0	6	0.554893373813	0.001000373813
0	9	0.580869485693	0.001000485693
0	12	0.582386966398	0.000999966398
0	15	0.589723147986	0.001000147986
0	18	0.671943690697	0.000999690697
0	21	0.675215261592	0.001000261592
0	24	0.689832905842	0.000999905842
0	27	0.701894376729	0.001000376729
0	30	0.760094016859	0.001000016859
0	33	0.762024286738	0.001000286738
0	36	0.785558427986	0.001000427986
0	39	0.808120253332	0.001000253332
0	42	0.837559914285	0.000999914285
0	45	0.851303299958	0.001000299958
0	48	0.858272326946	0.001000326946
0	51	0.8680173313	0.0010003313
0	54	0.877483680215	0.000999680215
0	57	0.879734628903	0.000999628903
0	60	0.90423245828	0.00100045828
0	63	0.91628838384	0.00100038384
0	66	0.9331112053	0.0010002053
0	69	0.960353750339	0.000999750339
0	72	0.981971808545	0.000999808545
0	77	0.986970773013	0.000999773013
0	78	0.987059989082	0.000999989082
0	81	1.01414133713	0.00100033713
0	84	1.043853230913	0.001000230913
0	87	1.045946299517	0.001000299517
0	90	1.072614062623	0.001000062623
0	93	1.084771859296	0.000999859296
0	96	1.088171261432	0.001000261432
0	99	1.091161595028	0.000999595028
0	102	1.109975101495	0.001000101495
0	105	1.131464948015	0.000999948015
0	108	1.146499314345	0.001000314345
0	113	1.151326697621	0.000999697621
0	114	1.151374194002	0.001000194002
0	117	1.173363367863	0.001000367863
0	120	1.178544431761	0.001000431761
0	123	1.180912340991	0.001000340991
0	126	1.182792275514	0.001000275514
0	129	1.235410229116	0.001000229116
0	132	1.238328741932	0.000999741932
0	135	1.241534573258	0.000999573258
0	138	1.245959264715	0.001000264715
0	141	1.248913442645	0.001000442645
0	144	1.255908690229	0.000999690229
0	149	1.258388094976	0.001000094976
0	150	1.258989865495	0.000999865495
0	153	1.289480497198	0.001000497198
0	156	1.310469065396	0.001000065396
0	159	1.321414311229	0.001000311229
0	162	1.32254810708	0.00100010708
0	165	1.323684763698	0.000999763698
0	168	1.324944867216	0.000999867216
0	171	1.328632244909	0.001000244909
0	174	1.345955699099	0.000999699099
0	177	1.356194162531	0.001000162531
0	180	1.358337069675	0.001000069675
0	183	1.362293218471	0.001000218471
0	186	1.379282414051	0.001000414051
0	189	1.381350146117	0.001000146117
0	194	1.384038072614	0.001000072614
0	195	1.384394203847	0.001000203847
0	200	1.396175880753	0.000999880753
0	201	1.396422370522	0.001000370522
0	204	1.408058592187	0.000999592187
0	207	1.427160421222	0.001000421222
0	210	1.448889330331	0.001000330331
0	213	1.459162853261	0.000999853261
0	216	1.479809582535	0.000999582535
0	219	1.492191010597	0.001000010597
0	222	1.496482436358	0.001000436358
0	225	1.507731063756	0.001000063756
0	228	1.508967088674	0.001000088674
0	231	1.513400473795	0.001000473795
0	234	1.519600196065	0.001000196065
0	237	1.547493012645	0.001000012645
0	240	1.567203456489	0.001000456489
0	243	1.591430885903	0.000999885903
0	246	1.599711644648	0.000999644648
0	251	1.629619123553	0.001000123553
0	252	1.630254721477	0.000999721477
0	255	1.63446112091	0.00100012091
0	258	1.64812023132	0.00100023132
0	261	1.654453197377	0.001000197377
0	264	1.661295974696	0.000999974696
0	267	1.687909240344	0.001000240344
0	270	1.692353135416	0.001000135416
0	273	1.696563142094	0.001000142094
0	276	1.714271428528	0.001000428528
0	279	1.719706108514	0.001000108514
0	282	1.738597551849	0.000999551849
0	285	1.743198771215	0.000999771215
0	288	1.757964691426	0.000999691426
0	291	1.759294452354	0.001000452354
0	294	1.769308844511	0.000999844511
0	299	1.781328686908	0.000999686908
0	302	1.782222740444	0.000999740444
0	303	1.782486841873	0.000999841873
0	306	1.786213831626	0.000999831626
0	309	1.792592412814	0.001000412814
0	314	1.794360447977	0.001000447977
0	315	1.794705314887	0.001000314887
0	318	1.80763017605	0.00100017605
0	321	1.843409302108	0.001000302108
0	324	1.844460793887	0.000999793887
0	327	1.848638086323	0.001000086323
0	332	1.853172046784	0.001000046784
0	333	1.853810988552	0.000999988552
0	336	1.855993691831	0.000999691831
0	339	1.859946146653	0.001000146653
0	342	1.868217341158	0.001000341158
0	345	1.876445488957	0.001000488957
0	348	1.91172639185	0.00100039185
0	351	1.919944532331	0.000999532331
0	354	1.928132796497	0.000999796497
0	359	1.942218381468	0.001000381468
0	360	1.942859707096	0.000999707096
0	363	1.955190655681	0.000999655681
0	366	1.957751400256	0.001000400256
0	369	1.962763667385	0.000999667385
0	372	1.974156596696	0.000999596696
0	375	1.999003530688	0.000999530688
0	378	2.006411664514	0.000999664514
0	381	2.015874314726	0.001000314726
0	384	2.020779054471	0.001000054471
0	387	2.045164308697	0.001000308697
0	390	2.078093705511	0.000999705511
0	395	2.100970927089	0.000999927089
0	396	2.101840781186	0.000999781186
0	399	2.106885207141	0.001000207141
0	402	2.10906191063	0.00099991063
0	405	2.114832122413	0.001000122413
0	410	2.1316196386	0.0009996386
0	411	2.131818001577	0.001000001577
0	414	2.138597594083	0.000999594083
0	417	2.194767845561	0.000999845561
0	422	2.214220265158	0.001000265158
0	423	2.215048992237	0.000999992237
0	426	2.223320802138	0.000999802138
0	431	2.229698499617	0.001000499617
0	432	2.229705735737	0.000999735737
0	435	2.243280394583	0.001000394583
0	442	2.26104990905	0.00099990905
0	443	2.261156387976	0.001000387976
0	444	2.262001384002	0.001000384002
0	447	2.267046823491	0.000999823491
0	450	2.270573662034	0.000999662034
0	453	2.274922272888	0.001000272888
0	456	2.287498577101	0.000999577101
0	459	2.302337757684	0.000999757684
0	462	2.304187882342	0.000999882342
0	465	2.306276941555	0.000999941555
0	468	2.314077625772	0.000999625772
0	471	2.320980477821	0.001000477821
0	474	2.329465151345	0.001000151345
0	477	2.333909574383	0.000999574383
0	480	2.35126256484	0.00099956484
0	483	2.356619709892	0.000999709892
0	488	2.368714973795	0.000999973795
0	489	2.368747134832	0.001000134832
0	492	2.395068090828	0.001000090828
0	495	2.399660145654	0.001000145654
0	498	2.406300344759	0.001000344759
0	501	2.408376084407	0.001000084407
0	504	2.423451815126	0.000999815126
0	507	2.42552396592	0.00099996592
0	510	2.438095430493	0.001000430493
0	513	2.440457523473	0.000999523473
0	516	2.455272908321	0.000999908321
0	519	2.46038653252	0.00099953252
0	522	2.478213935251	0.000999935251
0	525	2.500355195439	0.001000195439
0	528	2.506718250107	0.001000250107
0	531	2.519608391587	0.001000391587
0	534	2.522946186899	0.001000186899
0	537	2.527620247309	0.001000247309
0	540	2.553366520371	0.000999520371
0	543	2.59001383325	0.00099983325
0	546	2.591204589069	0.000999589069
0	549	2.592221476369	0.001000476369
0	553	2.613817645887	0.000999645887
0	556	2.615629510883	0.000999510883
0	559	2.640764549071	0.000999549071
0	562	2.673808367969	0.001000367969
0	564	2.675275586978	2.175275586978
0	570	2.684187857874	0.000999857874
0	571	2.684390755975	0.000999755975
0	574	2.68955253735	0.00099953735
0	578	2.725593731994	0.000999731994
0	585	2.728910837182	0.000999837182
0	586	2.728997899521	0.000999899521
0	587	2.729135416307	0.001000416307
0	590	2.742062176227	0.001000176227
0	593	2.749346881102	0.000999881102
0	597	2.763295407174	0.001000407174
0	600	2.76478070619	0.00099970619
0	603	2.767438844893	0.000999844893
0	608	2.773651777812	0.000999777812
0	611	2.774285851209	0.000999851209
0	612	2.775093880527	0.000999880527
0	615	2.790584829425	0.000999829425
0	618	2.802860260359	0.001000260359
0	621	2.815821256534	0.001000256534
0	624	2.820786570594	0.000999570594
0	627	2.822985487175	0.001000487175
0	630	2.830479156318	0.001000156318
0	634	2.854264107648	0.001000107648
0	637	2.855955786839	0.000999786839
0	642	2.8675252015	0.0010002015
0	643	2.867974343081	0.001000343081
0	646	2.875615367734	0.001000367734
0	649	2.885749299194	0.001000299194
0	652	2.889558121585	0.001000121585
0	655	2.903682054089	0.001000054089
0	658	2.911093558696	0.000999558696
0	661	2.914273336342	0.001000336342
0	664	2.921532357972	0.001000357972
0	667	2.931442742026	0.000999742026
0	670	2.941162312589	0.001000312589
0	673	2.972674238564	0.001000238564
0	676	2.992754591092	0.000999591092
0	679	2.998174757672	0.000999757672
0	682	3.007635976163	0.000999976163
0	687	3.02028535942	0.00100035942
0	688	3.020401462004	0.001000462004
0	691	3.030908532324	0.000999532324
0	694	3.032940846564	0.000999846564
0	697	3.039956096349	0.001000096349
0	700	3.097939505451	0.000999505451
0	703	3.099092731158	0.000999731158
0	706	3.135633374656	0.001000374656
0	709	3.141934101794	0.001000101794
0	712	3.144998795397	0.000999795397
0	715	3.14810393583	0.00099993583
0	718	3.158510336698	0.001000336698
0	721	3.161042897425	0.000999897425
0	724	3.175254381214	0.001000381214
0	727	3.220577504183	0.000999504183
0	730	3.229441594658	0.000999594658
0	733	3.241563530544	0.000999530544
0	736	3.249732154165	0.001000154165
0	739	3.252362000847	0.001000000847
0	744	3.267207551445	0.000999551445
0	745	3.26787031337	0.00100031337
0	748	3.274994736024	0.000999736024
0	753	3.281500625446	0.000999625446
0	754	3.281756705208	0.000999705208
0	757	3.283513587339	0.000999587339
0	760	3.292653144802	0.001000144802
0	763	3.294668415607	0.001000415607
0	766	3.297225625068	0.000999625068
0	769	3.298249100566	0.001000100566
0	772	3.313071851758	0.000999851758
0	775	3.318808525894	0.000999525894
0	778	3.320394285815	0.001000285815
0	781	3.32765691406	0.00099991406
0	784	3.333934617252	0.000999617252
0	787	3.358635264401	0.001000264401
0	790	3.362971988995	0.000999988995
0	793	3.369815402896	0.001000402896
0	796	3.380750855523	0.000999855523
0	799	3.400004273373	0.001000273373
0	802	3.402911186264	0.001000186264
0	805	3.409686577016	0.000999577016
0	808	3.412507093906	0.001000093906
0	811	3.427572432439	0.001000432439
0	814	3.43190463169	0.00099963169
0	817	3.435281505946	0.000999505946
0	820	3.455237191588	0.001000191588
0	823	3.464657930377	0.000999930377
0	826	3.485031430515	0.001000430515
0	829	3.506154207651	0.001000207651
0	832	3.508561351848	0.001000351848
0	835	3.514588960724	0.000999960724
0	838	3.517967268172	0.001000268172
0	841	3.524136709398	0.000999709398
0	844	3.540068056387	0.001000056387
0	847	3.564331047283	0.001000047283
0	850	3.586037989798	0.000999989798
0	853	3.614818283868	0.001000283868
0	856	3.616800742408	0.000999742408
0	859	3.62747061986	0.00099961986
0	862	3.634889049105	0.001000049105
0	865	3.640449198404	0.001000198404
0	868	3.649070962423	0.000999962423
0	871	3.666309164882	0.001000164882
0	874	3.681989187305	0.001000187305
0	877	3.714634861143	0.000999861143
0	880	3.738214686139	0.000999686139
0	883	3.744549065524	0.001000065524
0	886	3.748507026371	0.001000026371
0	891	3.750822921051	0.000999921051
0	892	3.751448223064	0.001000223064
0	895	3.7540806849	0.0009996849
0	898	3.755277220998	0.001000220998
0	901	3.76045378719	0.00099978719
0	904	3.768420043634	0.001000043634
0	907	3.779905368923	0.001000368923
0	910	3.784294941858	0.000999941858
0	913	3.791581764281	0.000999764281
0	916	3.800406726054	0.000999726054
0	919	3.814875300343	0.001000300343
0	922	3.820903150154	0.001000150154
0	927	3.82223837599	0.00100037599
0	928	3.823059348179	0.001000348179
0	931	3.824243761598	0.000999761598
0	934	3.825433308096	0.001000308096
0	937	3.831355928	0.000999928
0	940	3.850785303209	0.001000303209
0	943	3.864011489669	0.001000489669
0	946	3.867060427506	0.001000427506
0	949	3.870640121981	0.001000121981
0	952	3.889168142619	0.001000142619
0	955	3.892602256801	0.001000256801
0	958	3.895855422409	0.001000422409
0	961	3.903040714282	0.000999714282
0	964	3.933587669789	0.000999669789
0	967	3.95751283397	0.00099983397
0	970	3.96647299407	0.00099999407
0	973	3.970884252152	0.001000252152
0	976	3.977602224237	0.001000224237
0	979	3.983976232469	0.001000232469
0	982	3.997568003111	0.001000003111
0	985	4.0074227744	0.0009997744
0	988	4.033158356277	0.001000356277
0	991	4.034599711116	0.000999711116
0	994	4.045769970024	0.000999970024
0	997	4.054461552411	0.000999552411
0	1000	4.098852564137	0.000999564137
0	1003	4.10892879986	0.00099979986
0	1006	4.11429538899	0.00100038899
0	1009	4.115975139174	0.001000139174
0	1012	4.123144566825	0.000999566825
0	1015	4.157989113822	0.001000113822
0	1020	4.186429958976	0.000999958976
0	1021	4.186431984229	0.000999984229
0	1024	4.196525651378	0.000999651378
0	1027	4.204218093817	0.001000093817
0	1030	4.20586827409	0.00100027409
0	1033	4.213561804101	0.000999804101
0	1038	4.225456375792	0.001000375792
0	1039	4.226018220722	0.001000220722
0	1042	4.229257735235	0.000999735235
0	1045	4.241908748518	0.000999748518
0	1048	4.245357322295	0.001000322295
0	1051	4.249091712338	0.000999712338
0	1054	4.278996846988	0.000999846988
0	1057	4.281536583089	0.000999583089
0	1062	4.290728632267	0.000999632267
0	1063	4.291445664036	0.000999664036
0	1066	4.293124282126	0.001000282126
0	1071	4.30185064997	0.00099964997
0	1074	4.302619430911	0.001000430911
0	1075	4.303384050585	0.001000050585
0	1078	4.307637248561	0.001000248561
0	1081	4.311081295857	0.001000295857
0	1084	4.318232572543	0.000999572543
0	1087	4.34010585118	0.00099985118
0	1090	4.34661133301	0.00100033301
0	1093	4.348283857292	0.000999857292
0	1096	4.371290184231	0.001000184231
0	1099	4.379674029884	0.001000029884
0	1102	4.386010680486	0.000999680486
0	1107	4.405370451857	0.001000451857
0	1108	4.405651095112	0.001000095112
0	1111	4.411524177622	0.001000177622
0	1114	4.414942647027	0.000999647027
0	1117	4.417100314726	0.001000314726
0	1120	4.425766257872	0.001000257872
0	1123	4.484907228778	0.001000228778
0	1126	4.487229225574	0.001000225574
0	1129	4.490531837264	0.000999837264
0	1132	4.510290980012	0.000999980012
0	1135	4.532042378838	0.001000378838
0	1138	4.54133613319	0.00100013319
0	1143	4.549979415326	0.001000415326
0	1144	4.550039065232	0.001000065232
0	1147	4.566032463544	0.001000463544
0	1150	4.568646842309	0.000999842309
0	1153	4.570130651421	0.000999651421
0	1156	4.602633281772	0.001000281772
0	1159	4.64167762757	0.00099962757
0	1162	4.652657696207	0.000999696207
0	1165	4.655713007435	0.001000007435
0	1168	4.659391578379	0.000999578379
0	1171	4.668817948967	0.000999948967
0	1174	4.695687469607	0.001000469607
0	1177	4.702417217171	0.001000217171
0	1180	4.719486066604	0.001000066604
0	1183	4.72258366537	0.00099966537
0	1186	4.726478840223	0.000999840223
0	1189	4.739173272019	0.001000272019
0	1192	4.742045609793	0.000999609793
0	1195	4.747726532189	0.000999532189
0	1198	4.754975090755	0.001000090755
0	1201	4.757763043837	0.001000043837
0	1204	4.765069956077	0.000999956077
0	1209	4.768337371013	0.001000371013
0	1210	4.769245160044	0.001000160044
0	1213	4.778158995485	0.000999995485
0	1216	4.779921962903	0.000999962903
0	1219	4.788525916146	0.000999916146
0	1222	4.799745812848	0.000999812848
0	1225	4.80322911716	0.00100011716
0	1230	4.814038476695	0.001000476695
0	1231	4.814408543566	0.000999543566
0	1234	4.815464806208	0.000999806208
0	1239	4.866161259914	0.001000259914
0	1240	4.866888795233	0.000999795233
0	1245	4.874231148791	0.001000148791
0	1246	4.874939046287	0.001000046287
0	1249	4.876007939571	0.000999939571
0	1252	4.884895174809	0.001000174809
0	1255	4.894104154057	0.001000154057
0	1258	4.895784288342	0.001000288342
0	1261	4.900295592518	0.000999592518
0	1264	4.909566426323	0.001000426323
0	1267	4.95038333528	0.00100033528
0	1270	4.959192703385	0.000999703385
0	1273	4.966949354274	0.001000354274
0	1276	4.991979623794	0.000999623794
0	1279	5.000675302044	0.001000302044
0	1282	5.008057401584	0.001000401584
0	1285	5.023117685992	0.000999685992
0	1288	5.024561783136	0.000999783136
0	1291	5.039357017585	0.001000017585
0	1294	5.050416363472	0.001000363472
0	1299	5.053041636802	0.000999636802
0	1300	5.053152652549	0.000999652549
0	1303	5.054749792346	0.000999792346
0	1306	5.066135153197	0.001000153197
0	1310	5.096740630685	0.000999630685
0	1314	5.136791852185	0.000999852185
0	1317	5.171278428751	0.001000428751
0	1320	5.174118309304	0.001000309304
0	1323	5.175615606595	0.000999606595
0	1327	5.188889388109	0.001000388109
0	1330	5.195319034788	0.001000034788
0	1335	5.197609659165	0.000999659165
0	1337	5.197808605454	0.000999605454
0	1340	5.229070816654	0.000999816654
0	1343	5.231060680583	0.000999680583
0	1346	5.239614222152	0.001000222152
0	1349	5.251039633456	0.000999633456
0	1352	5.258489543129	0.000999543129
0	1355	5.26388771613	0.00099971613
0	1358	5.2660855192	0.0009995192
0	1361	5.269832918164	0.000999918164
0	1364	5.271015500673	0.000999500673
0	1367	5.274315281186	0.001000281186
0	1371	5.278130524443	0.000999524443
0	1374	5.280453808977	0.000999808977
0	1377	5.285201385711	0.001000385711
0	1380	5.286635276418	0.001000276418
0	1383	5.304146661842	0.000999661842
0	1387	5.335331108955	0.001000108955
0	1392	5.349607324086	0.001000324086
0	1393	5.349757572728	0.000999572728
0	1396	5.353328667067	0.000999667067
0	1399	5.358138361711	0.001000361711
0	1402	5.362324216333	0.001000216333
0	1405	5.365110466932	0.001000466932
0	1408	5.377044676779	0.000999676779
0	1411	5.395233989251	0.000999989251
0	1414	5.397797442924	0.001000442924
0	1417	5.405806848779	0.000999848779
0	1420	5.431079083167	0.001000083167
0	1423	5.435657362779	0.001000362779
0	1426	5.440401336574	0.001000336574
0	1429	5.480512289329	0.001000289329
0	1432	5.481735883791	0.000999883791
0	1435	5.489535640342	0.000999640342
0	1438	5.497031745476	0.000999745476
0	1443	5.514891310849	0.001000310849
0	1444	5.515543469413	0.001000469413
0	1447	5.519346127914	0.001000127914
0	1450	5.561516273441	0.001000273441
0	1453	5.563428158869	0.001000158869
0	1456	5.566269260504	0.001000260504
0	1459	5.570966475759	0.001000475759
0	1462	5.580563155046	0.001000155046
0	1465	5.593211180971	0.001000180971
0	1468	5.651324963684	0.000999963684
0	1471	5.669608488887	0.001000488887
0	1474	5.675211716466	0.000999716466
0	1477	5.679760953409	0.000999953409
0	1482	5.685806608664	0.000999608664
0	1483	5.686427325801	0.001000325801
0	1486	5.701819156505	0.001000156505
0	1489	5.702901128354	0.001000128354
0	1492	5.709354090783	0.001000090783
0	1495	5.721654531801	0.000999531801
1	3	0.50898260537	0.00099960537
1	6	0.554893373813	0.001000373813
1	9	0.580869485693	0.001000485693
1	12	0.582386966398	0.000999966398
1	15	0.589723147986	0.001000147986
1	18	0.671943690697	0.000999690697
1	21	0.675215261592	0.001000261592
1	24	0.689832905842	0.000999905842
1	27	0.701894376729	0.001000376729
1	30	0.760094016859	0.001000016859

