version 3
run Attack20_record-0-20250915-22:43:51-99459
attr configname Attack20_record
attr datetime 20250915-22:43:51
attr datetimef 20250915-224351
attr experiment Attack20_record
attr inifile run_record.ini
attr iterationvars ""
attr iterationvarsd ""
attr iterationvarsf ""
attr measurement ""
attr network ned.LightIoTNetwork
attr processid 99459
attr repetition 0
attr replication #0
attr resultdir results
attr runnumber 0
attr seedset 105
config **.result-recording-modes all
config **.scalar-recording true
config **.vector-recording true
config output-scalar-file results/delay/Attack20_record_s105.sca
config output-vector-file results/delay/Attack20_record_s105.vec
config record-eventlog false
config seed-set 105
config network ned.LightIoTNetwork
config LightIoTNetwork.numSensorNodes 20
config **.sensor[*].mode "\"Secure\""
config **.fakeNode.enabled true
config **.fakeNode.validMac true
config **.gateway.securityEnabled true
config **.gateway.hmacWindow 1s
config description "Secure Mode Simulation (includes all scenarios)"
config network ned.LightIoTNetwork
config ned-path .
config sim-time-limit 10s
config record-eventlog true
config cmdenv-express-mode false
config network ned.LightIoTNetwork
config sim-time-limit 10s
config output-scalar-file results/secure_output.sca
config output-vector-file results/secure_output.vec
config network LightIoTNetwork
config sim-time-limit 10s
config output-scalar-file results/nosecure_output.sca
config output-vector-file results/nosecure_output.vec
config network LightIoTNetwork
config sim-time-limit 10s
config output-scalar-file results/attack_output.sca
config output-vector-file results/attack_output.vec
config output-scalar-file results/Attack20_record-0.sca
config output-vector-file results/Attack20_record-0.vec
config **.scalar-recording true
config **.vector-recording true
config **.statistic-recording true
config **.result-recording-modes all
config rng-class cMersenneTwister
config num-rngs 1
config seed-set 123
config output-scalar-file results/Attack20_record-0.sca
config output-vector-file results/Attack20_record-0.vec
config **.scalar-recording true
config **.vector-recording true
config **.result-recording-modes all
config **.sensor[*].aesKeyHex "\"00112233445566778899AABBCCDDEEFF\""
config **.gateway.aesKeyHex "\"00112233445566778899AABBCCDDEEFF\""
config **.fakeNode.aesKeyHex "\"00112233445566778899AABBCCDDEEFF\""
config **.sensor[*].sendInterval 0.5s
config **.sensor[*].mode "\"Secure\""
config **.gateway.procDelay 1ms
config **.gateway.hmacWindow 1s
config **.gateway.costForward_mJ 5
config **.gateway.costVerify_mJ 5
config **.gateway.batteryInit_mJ 5000
config **.gateway.securityEnabled true
config **.gateway.checkHmac true
config **.gateway.checkFreshness true
config **.gateway.checkDuplicate true
config **.gateway.duplicateMethod "\"set\""
config **.gateway.bloomBits 16384
config **.gateway.bloomHashes 3
config **.gateway.sbfBits 16384
config **.gateway.sbfHashes 3
config **.gateway.sbfDecay 0.02
config **.fakeNode.enabled false
config **.fakeNode.attackMode 1
config **.fakeNode.replayInterval 2.5s
config **.fakeNode.validMac true
config **.fakeNode.replayId 100000
config **.fakeNode.replayTsUs 500000
config **.fakeNode.dupBurstLen 4
config **.fakeNode.dupBurstGap 200ms
config **.fakeNode.outOfOrderJitter 80ms
config sim-time-limit 10s

vector 0 LightIoTNetwork.cloud e2eDelay_valid ETV
vector 1 LightIoTNetwork.cloud e2eDelay_debug ETV
0	3	0.503245234558	0.001000234558
0	6	0.564689570175	0.000999570175
0	9	0.584739921451	0.000999921451
0	12	0.606686828494	0.000999828494
0	15	0.797834574547	0.000999574547
0	18	0.829265336575	0.001000336575
0	21	0.834506291267	0.001000291267
0	24	0.85017688393	0.00099988393
0	27	0.926562329125	0.001000329125
0	30	0.952115909731	0.000999909731
0	33	0.955943764046	0.000999764046
0	36	1.036640042275	0.001000042275
0	39	1.039577341963	0.001000341963
0	42	1.085818042116	0.001000042116
0	45	1.090842133922	0.001000133922
0	48	1.131678549991	0.000999549991
0	51	1.150545378983	0.001000378983
0	54	1.235419801272	0.000999801272
0	57	1.241929435706	0.001000435706
0	60	1.28628516551	0.00100016551
0	63	1.333368245535	0.001000245535
0	66	1.339875475899	0.001000475899
0	69	1.351235002348	0.001000002348
0	72	1.354024409129	0.001000409129
0	75	1.36035574118	0.00099974118
0	78	1.384619604865	0.000999604865
0	81	1.414768238248	0.001000238248
0	84	1.4170376871	0.0009996871
0	87	1.454664282989	0.001000282989
0	90	1.467343494552	0.001000494552
0	93	1.478700535906	0.000999535906
0	96	1.518557090683	0.001000090683
0	99	1.568519706208	0.000999706208
0	102	1.599123026546	0.001000026546
0	105	1.604451100085	0.001000100085
0	108	1.644775262451	0.001000262451
0	111	1.656408105976	0.001000105976
0	114	1.722458714362	0.000999714362
0	117	1.788157725706	0.000999725706
0	120	1.789896018267	0.001000018267
0	123	1.804133973573	0.000999973573
0	126	1.807191673293	0.000999673293
0	129	1.820618166587	0.001000166587
0	132	1.845666552264	0.000999552264
0	135	1.85802358745	0.00099958745
0	138	1.885710261528	0.001000261528
0	141	1.899622975382	0.000999975382
0	144	1.924459822638	0.000999822638
0	147	1.931188961444	0.000999961444
0	150	2.007084897579	0.000999897579
0	153	2.023400794853	0.000999794853
0	156	2.026673046591	0.001000046591
0	159	2.073260058625	0.001000058625
0	162	2.08069081311	0.00099981311
0	165	2.093643614043	0.000999614043
0	168	2.114034624374	0.000999624374
0	171	2.127575622615	0.000999622615
0	174	2.231351554509	0.000999554509
0	177	2.282596067385	0.001000067385
0	180	2.305308857862	0.000999857862
0	183	2.319413078366	0.001000078366
0	186	2.333045410154	0.001000410154
0	189	2.345699002663	0.001000002663
0	192	2.353285153791	0.001000153791
0	195	2.35997730391	0.00100030391
0	200	2.394721660017	0.000999660017
0	201	2.395714025478	0.001000025478
0	204	2.413407777249	0.000999777249
0	207	2.454249603277	0.000999603277
0	210	2.52725811887	0.00100011887
0	213	2.534897270309	0.001000270309
0	216	2.543337789665	0.000999789665
0	219	2.54704444541	0.00100044541
0	223	2.581813361797	0.001000361797
0	225	2.590635254164	2.090635254164
0	228	2.617670102953	0.001000102953
0	231	2.62849446216	0.00100046216
0	234	2.672091509914	0.000999509914
0	238	2.698673754673	0.000999754673
0	243	2.780397575441	0.000999575441
0	247	2.812085231207	0.001000231207
0	250	2.8228833589	0.0010003589
0	253	2.844092658185	0.000999658185
0	256	2.855050375847	0.001000375847
0	259	2.856833854363	0.000999854363
0	262	2.863143748417	0.000999748417
0	265	2.872543735196	0.000999735196
0	268	2.873861210419	0.001000210419
0	271	2.916149703622	0.000999703622
0	274	2.939495305949	0.001000305949
0	277	3.002479016524	0.001000016524
0	280	3.034363962267	0.000999962267
0	283	3.04464420711	0.00100020711
0	286	3.04817530834	0.00100030834
0	289	3.075802821734	0.000999821734
0	292	3.110560464625	0.001000464625
0	295	3.131669045961	0.001000045961
0	298	3.162519435026	0.001000435026
0	301	3.207765605602	0.000999605602
0	304	3.273338501294	0.000999501294
0	307	3.317776600341	0.000999600341
0	310	3.335583335324	0.001000335324
0	313	3.344823910598	0.000999910598
0	316	3.351828848918	0.000999848918
0	319	3.360468498896	0.001000498896
0	322	3.370533255277	0.001000255277
0	325	3.371768373133	0.001000373133
0	328	3.382091487314	0.001000487314
0	331	3.4143351075	0.0010001075
0	334	3.445943699497	0.000999699497
0	337	3.494139589113	0.000999589113
0	340	3.507263471488	0.001000471488
0	343	3.535239441109	0.001000441109
0	346	3.556723640625	0.000999640625
0	349	3.573630929877	0.000999929877
0	352	3.588921031798	0.001000031798
0	355	3.613080711685	0.000999711685
0	358	3.692618578067	0.000999578067
0	363	3.754046903619	0.000999903619
0	364	3.754759957105	0.000999957105
0	367	3.818553661601	0.000999661601
0	370	3.825404475582	0.001000475582
0	373	3.847497879248	0.000999879248
0	376	3.885948433749	0.001000433749
0	379	3.895335497054	0.001000497054
0	382	3.901751912477	0.000999912477
0	385	3.905226511181	0.000999511181
0	388	3.918296675708	0.000999675708
0	391	3.938273566844	0.000999566844
0	394	3.94277944779	0.00100044779
0	397	3.959223426342	0.001000426342
0	400	3.977977673895	0.000999673895
0	403	4.001172978965	0.000999978965
0	406	4.024102460871	0.001000460871
0	409	4.048520748457	0.000999748457
0	412	4.088246033921	0.001000033921
0	415	4.110330715961	0.000999715961
0	418	4.152535875933	0.000999875933
0	421	4.228030923497	0.000999923497
0	424	4.272757548721	0.000999548721
0	427	4.303035293635	0.001000293635
0	430	4.312687290622	0.001000290622
0	433	4.346434008515	0.001000008515
0	436	4.378664449742	0.001000449742
0	439	4.386421933327	0.000999933327
0	442	4.397148858848	0.000999858848
0	445	4.402462564477	0.000999564477
0	448	4.414023588643	0.000999588643
0	451	4.472901846654	0.000999846654
0	454	4.476067404821	0.001000404821
0	457	4.48632899213	0.00099999213
0	460	4.490983722103	0.000999722103
0	463	4.518024692636	0.000999692636
0	466	4.547370267728	0.001000267728
0	469	4.554897106648	0.001000106648
0	472	4.569812116305	0.001000116305
0	475	4.64901857737	0.00099957737
0	478	4.659338875929	0.000999875929
0	481	4.681115223257	0.001000223257
0	484	4.777633116835	0.001000116835
0	487	4.809988432097	0.001000432097
0	490	4.841413957438	0.000999957438
0	493	4.854338440414	0.001000440414
0	496	4.868520106351	0.001000106351
0	499	4.880828283214	0.001000283214
0	502	4.893516306624	0.001000306624
0	505	4.894964476557	0.001000476557
0	508	4.924050051998	0.001000051998
0	511	4.93714999298	0.00099999298
0	514	4.987650498608	0.001000498608
0	517	4.992560606473	0.000999606473
0	520	5.002655026106	0.001000026106
0	523	5.028791145374	0.001000145374
0	526	5.047150324376	0.001000324376
0	529	5.060486240964	0.001000240964
0	532	5.074569588642	0.000999588642
0	537	5.155770996049	0.000999996049
0	541	5.181431938522	0.000999938522
0	545	5.219756986898	0.000999986898
0	548	5.25119210379	0.00100010379
0	551	5.264421804085	0.000999804085
0	556	5.366186938597	0.000999938597
0	559	5.378460299432	0.001000299432
0	562	5.381819809436	0.000999809436
0	565	5.384943153382	0.001000153382
0	568	5.403640834217	0.000999834217
0	571	5.409625201321	0.001000201321
0	574	5.42152063325	0.00099963325
0	577	5.455464974185	0.000999974185
0	580	5.458707476662	0.001000476662
0	583	5.474039596155	0.000999596155
0	586	5.522633096133	0.001000096133
0	589	5.562522727786	0.000999727786
0	592	5.571928614911	0.000999614911
0	595	5.58417240097	0.00100040097
0	598	5.603192754578	0.000999754578
0	601	5.681572322663	0.001000322663
0	604	5.690506794931	0.000999794931
0	609	5.725354643749	0.000999643749
0	610	5.725995470536	0.001000470536
0	613	5.779198617253	0.000999617253
0	616	5.835317103587	0.001000103587
0	619	5.861624843206	0.000999843206
0	622	5.911219695162	0.000999695162
0	625	5.916429896536	0.000999896536
0	628	5.91743544815	0.00100044815
0	631	5.922989465667	0.001000465667
0	634	5.92889094625	0.00099994625
0	637	5.944262861529	0.000999861529
0	640	5.94771245846	0.00100045846
0	643	5.963003515195	0.000999515195
0	646	5.980173821654	0.000999821654
0	649	6.047383191296	0.001000191296
0	652	6.104586843678	0.000999843678
0	655	6.106509673897	0.000999673897
0	658	6.111246065537	0.001000065537
0	661	6.15735299983	0.00099999983
0	664	6.168750525637	0.000999525637
0	667	6.200540677017	0.000999677017
0	670	6.21264276076	0.00099976076
0	673	6.322242673065	0.000999673065
0	676	6.349513928194	0.000999928194
0	679	6.361589991044	0.000999991044
0	682	6.373928728861	0.000999728861
0	685	6.384117914247	0.000999914247
0	688	6.395953699712	0.000999699712
0	691	6.422379150892	0.001000150892
0	694	6.450163263361	0.001000263361
0	697	6.455934561951	0.000999561951
0	700	6.463983866408	0.000999866408
0	703	6.484867269731	0.001000269731
0	706	6.490058063343	0.001000063343
0	709	6.537926455656	0.001000455656
0	712	6.576875712208	0.000999712208
0	715	6.643281097732	0.001000097732
0	718	6.646663956016	0.000999956016
0	721	6.649285798635	0.000999798635
0	724	6.669209872162	0.000999872162
0	727	6.705054829061	0.000999829061
0	730	6.713793894228	0.000999894228
0	733	6.800047187505	0.001000187505
0	736	6.831593513464	0.000999513464
0	739	6.845949970301	0.000999970301
0	742	6.86625698423	0.00099998423
0	745	6.867351785765	0.000999785765
0	748	6.890866231009	0.001000231009
0	751	6.900677095329	0.001000095329
0	754	6.922892902371	0.000999902371
0	757	6.924708594171	0.000999594171
0	760	6.96921926732	0.00100026732
0	763	6.970758982352	0.000999982352
0	766	7.024458923469	0.000999923469
0	769	7.036853442944	0.001000442944
0	772	7.047770056034	0.001000056034
0	775	7.127465289829	0.001000289829
0	778	7.138544867349	0.000999867349
0	781	7.168125039524	0.001000039524
0	784	7.17120026124	0.00100026124
0	787	7.205290760403	0.000999760403
0	790	7.237573208775	0.001000208775
0	793	7.327641141646	0.001000141646
0	796	7.345618109473	0.001000109473
0	799	7.35537028443	0.00100028443
0	802	7.383938531856	0.000999531856
0	805	7.389048477679	0.001000477679
0	808	7.395397549936	0.000999549936
0	811	7.413707319577	0.001000319577
0	814	7.417158135002	0.001000135002
0	817	7.428542924601	0.000999924601
0	820	7.45410023576	0.00100023576
0	823	7.489493786171	0.000999786171
0	826	7.540071415038	0.001000415038
0	829	7.544410158412	0.001000158412
0	832	7.550413779285	0.000999779285
0	836	7.589310866988	0.000999866988
0	839	7.614957468187	0.001000468187
0	842	7.637910290923	0.001000290923
0	847	7.708500103977	0.001000103977
0	850	7.709655087116	0.001000087116
0	853	7.718404171987	0.001000171987
0	858	7.806592287657	0.001000287657
0	864	7.854743875725	0.000999875725
0	865	7.8556007019	0.0009997019
0	868	7.876582425971	0.001000425971
0	871	7.878930475888	0.001000475888
0	874	7.887545395246	0.001000395246
0	877	7.896288241887	0.001000241887
0	880	7.902122185494	0.001000185494
0	883	7.914698308262	0.001000308262
0	886	7.972804470499	0.001000470499
0	889	8.006198829319	0.000999829319
0	892	8.010250749182	0.000999749182
0	895	8.040110713264	0.000999713264
0	898	8.056877576651	0.000999576651
0	901	8.071758587261	0.000999587261
0	904	8.100950031424	0.001000031424
0	907	8.107263130973	0.001000130973
0	910	8.170974423828	0.001000423828
0	913	8.216449817061	0.000999817061
0	916	8.234762872475	0.000999872475
0	919	8.318666513006	0.000999513006
0	922	8.33158600151	0.00100000151
0	925	8.348103785747	0.000999785747
0	928	8.370004308758	0.001000308758
0	931	8.385848403558	0.001000403558
0	934	8.387343709076	0.000999709076
0	937	8.418888895539	0.000999895539
0	940	8.421595445809	0.001000445809
0	943	8.449869488062	0.001000488062
0	946	8.5013716317	0.0009996317
0	949	8.510889925597	0.000999925597
0	952	8.512273963098	0.000999963098
0	955	8.52161721254	0.00100021254
0	958	8.546643442448	0.001000442448
0	961	8.563825438403	0.001000438403
0	964	8.593144459462	0.001000459462
0	967	8.599427447793	0.001000447793
0	970	8.662754260654	0.001000260654
0	973	8.754004973942	0.000999973942
0	976	8.766385054983	0.001000054983
0	979	8.771978811336	0.000999811336
0	982	8.825558885955	0.000999885955
0	985	8.861113426438	0.001000426438
0	988	8.881350954481	0.000999954481
0	991	8.882571667524	0.000999667524
0	994	8.89269556601	0.00099956601
0	997	8.902840313128	0.001000313128
0	1000	8.9115531228	0.0010001228
0	1003	8.966288788825	0.000999788825
0	1006	8.98497605205	0.00100005205
0	1009	8.99614161956	0.00099961956
0	1012	8.999252798453	0.000999798453
0	1015	9.012080061526	0.001000061526
0	1018	9.032225753412	0.000999753412
0	1021	9.066617396145	0.001000396145
0	1024	9.071233058789	0.001000058789
0	1027	9.142168199852	0.001000199852
0	1030	9.14368334289	0.00100034289
0	1035	9.229484908563	0.000999908563
0	1036	9.230032359761	0.001000359761
0	1039	9.289379747397	0.000999747397
0	1042	9.318937100563	0.001000100563
0	1045	9.374124441481	0.001000441481
0	1048	9.376219230587	0.001000230587
0	1051	9.381987464822	0.001000464822
0	1054	9.399755325888	0.001000325888
0	1057	9.403419945248	0.000999945248
0	1060	9.430044632404	0.000999632404
0	1063	9.462355635198	0.000999635198
0	1066	9.500849080807	0.001000080807
0	1069	9.506978779331	0.000999779331
0	1072	9.516701407985	0.001000407985
0	1075	9.528551499497	0.001000499497
0	1078	9.542363777521	0.000999777521
0	1081	9.596465491595	0.001000491595
0	1084	9.606113009455	0.001000009455
0	1087	9.614789191259	0.001000191259
0	1090	9.648201707121	0.000999707121
0	1093	9.7463575796	0.0009995796
0	1096	9.779303845366	0.000999845366
0	1099	9.817512214089	0.001000214089
0	1102	9.82897876075	0.00099976075
0	1105	9.847678148023	0.001000148023
0	1108	9.88863873612	0.00099973612
0	1111	9.899047954612	0.000999954612
0	1114	9.905735941254	0.000999941254
0	1119	9.939102306286	0.001000306286
0	1120	9.939348545901	0.000999545901
0	1123	9.972927834721	0.000999834721
0	1126	9.995917953152	0.000999953152
1	3	0.503245234558	0.001000234558
1	6	0.564689570175	0.000999570175
1	9	0.584739921451	0.000999921451
1	12	0.606686828494	0.000999828494
1	15	0.797834574547	0.000999574547
1	18	0.829265336575	0.001000336575
1	21	0.834506291267	0.001000291267
1	24	0.85017688393	0.00099988393
1	27	0.926562329125	0.001000329125
1	30	0.952115909731	0.000999909731

