version 3
run Attack20_record-0-20250914-01:05:41-57578
attr configname Attack20_record
attr datetime 20250914-01:05:41
attr datetimef 20250914-010541
attr experiment Attack20_record
attr inifile run_record.ini
attr iterationvars ""
attr iterationvarsd ""
attr iterationvarsf ""
attr measurement ""
attr network ned.LightIoTNetwork
attr processid 57578
attr repetition 0
attr replication #0
attr resultdir results
attr runnumber 0
attr seedset 123
config output-scalar-file results/Attack20_record.sca
config output-vector-file results/Attack20_record.vec
config **.result-recording-modes all
config **.scalar-recording true
config **.vector-recording true
config network ned.LightIoTNetwork
config LightIoTNetwork.numSensorNodes 20
config **.sensor[*].mode "\"Secure\""
config **.fakeNode.enabled true
config **.fakeNode.validMac true
config **.gateway.securityEnabled true
config **.gateway.hmacWindow 1s
config description "Secure Mode Simulation (includes all scenarios)"
config network ned.LightIoTNetwork
config ned-path .
config sim-time-limit 10s
config record-eventlog true
config cmdenv-express-mode false
config network ned.LightIoTNetwork
config sim-time-limit 10s
config output-scalar-file results/secure_output.sca
config output-vector-file results/secure_output.vec
config network LightIoTNetwork
config sim-time-limit 10s
config output-scalar-file results/nosecure_output.sca
config output-vector-file results/nosecure_output.vec
config network LightIoTNetwork
config sim-time-limit 10s
config output-scalar-file results/attack_output.sca
config output-vector-file results/attack_output.vec
config output-scalar-file results/Attack20_record-0.sca
config output-vector-file results/Attack20_record-0.vec
config **.scalar-recording true
config **.vector-recording true
config **.statistic-recording true
config **.result-recording-modes all
config rng-class cMersenneTwister
config num-rngs 1
config seed-set 123
config output-scalar-file results/Attack20_record-0.sca
config output-vector-file results/Attack20_record-0.vec
config **.scalar-recording true
config **.vector-recording true
config **.result-recording-modes all
config **.sensor[*].aesKeyHex "\"00112233445566778899AABBCCDDEEFF\""
config **.gateway.aesKeyHex "\"00112233445566778899AABBCCDDEEFF\""
config **.fakeNode.aesKeyHex "\"00112233445566778899AABBCCDDEEFF\""
config **.sensor[*].sendInterval 0.5s
config **.sensor[*].mode "\"Secure\""
config **.gateway.procDelay 1ms
config **.gateway.hmacWindow 1s
config **.gateway.costForward_mJ 5
config **.gateway.costVerify_mJ 5
config **.gateway.batteryInit_mJ 5000
config **.gateway.securityEnabled true
config **.gateway.checkHmac true
config **.gateway.checkFreshness true
config **.gateway.checkDuplicate true
config **.gateway.duplicateMethod "\"set\""
config **.gateway.bloomBits 16384
config **.gateway.bloomHashes 3
config **.gateway.sbfBits 16384
config **.gateway.sbfHashes 3
config **.gateway.sbfDecay 0.02
config **.fakeNode.enabled false
config **.fakeNode.attackMode 1
config **.fakeNode.replayInterval 2.5s
config **.fakeNode.validMac true
config **.fakeNode.replayId 100000
config **.fakeNode.replayTsUs 500000
config **.fakeNode.dupBurstLen 4
config **.fakeNode.dupBurstGap 200ms
config **.fakeNode.outOfOrderJitter 80ms
config sim-time-limit 10s

vector 0 LightIoTNetwork.cloud e2eDelay_valid ETV
vector 1 LightIoTNetwork.cloud e2eDelay_debug ETV
0	3	0.640950763201	0.000999763201
0	6	0.727851454936	0.001000454936
0	9	0.787139338743	0.001000338743
0	12	0.893117517302	0.000999517302
0	15	0.902017554104	0.000999554104
0	18	0.911924367839	0.001000367839
0	21	0.924106460599	0.001000460599
0	24	0.929470924962	0.000999924962
0	27	0.981931907427	0.000999907427
0	30	0.992118932609	0.000999932609
0	33	1.052314765122	0.000999765122
0	36	1.080694297398	0.001000297398
0	39	1.153682463592	0.001000463592
0	42	1.185829734266	0.000999734266
0	45	1.191884851385	0.000999851385
0	48	1.197469187271	0.001000187271
0	51	1.213955321418	0.001000321418
0	56	1.220150308752	0.001000308752
0	57	1.22046897055	0.00099997055
0	60	1.250756425782	0.001000425782
0	63	1.269554428336	0.001000428336
0	66	1.281027760426	0.000999760426
0	69	1.367892157658	0.001000157658
0	72	1.376493482081	0.001000482081
0	75	1.38697474203	0.00099974203
0	78	1.419275350053	0.001000350053
0	81	1.443581978114	0.000999978114
0	84	1.481764200445	0.001000200445
0	87	1.491322147217	0.001000147217
0	90	1.515918472805	0.001000472805
0	93	1.548943470651	0.001000470651
0	96	1.565493967151	0.000999967151
0	99	1.647708181338	0.001000181338
0	102	1.650257499911	0.001000499911
0	105	1.653374909865	0.000999909865
0	108	1.700624324287	0.001000324287
0	111	1.71325531951	0.00100031951
0	114	1.723333067609	0.001000067609
0	117	1.735188339207	0.001000339207
0	120	1.749332478152	0.001000478152
0	123	1.764196521974	0.000999521974
0	126	1.81597093984	0.00099993984
0	129	1.86710063496	0.00099963496
0	132	1.898939014225	0.001000014225
0	135	1.911004380718	0.001000380718
0	138	1.929354870109	0.000999870109
0	141	1.930377701506	0.000999701506
0	144	1.983043141919	0.001000141919
0	147	1.998214363726	0.001000363726
0	150	2.004008538857	0.000999538857
0	153	2.051672832947	0.000999832947
0	156	2.064415601617	0.000999601617
0	159	2.123083823453	0.000999823453
0	162	2.126826197211	0.001000197211
0	165	2.135088324546	0.001000324546
0	168	2.179995728213	0.000999728213
0	171	2.2085429718	0.0009999718
0	174	2.23643067961	0.00099967961
0	179	2.261787934228	0.000999934228
0	180	2.262054847971	0.000999847971
0	183	2.291896965656	0.000999965656
0	186	2.309341057087	0.001000057087
0	189	2.319898830399	0.000999830399
0	192	2.369560853247	1.869560853247
0	195	2.378395032579	0.001000032579
0	198	2.392025290475	0.001000290475
0	201	2.395785925886	0.000999925886
0	204	2.428723379992	0.001000379992
0	208	2.455923011992	0.001000011992
0	211	2.475626171194	0.001000171194
0	215	2.485234660584	0.000999660584
0	219	2.55705073201	0.00099973201
0	222	2.590659402939	0.001000402939
0	226	2.648121693893	0.000999693893
0	229	2.654428648482	0.000999648482
0	232	2.666165113681	0.001000113681
0	235	2.709719309418	0.001000309418
0	238	2.724411730351	0.000999730351
0	241	2.736614346992	0.001000346992
0	244	2.758214739639	0.000999739639
0	247	2.770902896742	0.000999896742
0	250	2.774450143169	0.001000143169
0	253	2.798740035457	0.001000035457
0	256	2.800153775698	0.000999775698
0	259	2.856678820773	0.000999820773
0	262	2.867070827096	0.000999827096
0	265	2.920064900279	0.000999900279
0	268	2.927026806305	0.000999806305
0	271	2.955472190631	0.001000190631
0	274	2.958518253731	0.001000253731
0	277	3.024182149698	0.001000149698
0	280	3.058999244193	0.001000244193
0	283	3.084345469181	0.001000469181
0	286	3.128227980318	0.000999980318
0	289	3.159411146375	0.001000146375
0	292	3.17958294833	0.00099994833
0	295	3.207808521877	0.000999521877
0	298	3.249173190212	0.001000190212
0	301	3.257045810226	0.000999810226
0	304	3.266387187828	0.001000187828
0	307	3.268520752293	0.000999752293
0	310	3.278956943772	0.000999943772
0	313	3.284430159278	0.001000159278
0	316	3.292081859613	0.000999859613
0	319	3.307654555886	0.000999555886
0	322	3.347482906304	0.000999906304
0	325	3.404144498798	0.001000498798
0	328	3.41872902729	0.00100002729
0	331	3.474399391282	0.001000391282
0	334	3.476648329732	0.001000329732
0	339	3.5611190781	0.0010000781
0	340	3.561125851469	0.000999851469
0	343	3.596544928429	0.000999928429
0	346	3.629270214308	0.001000214308
0	349	3.655085937725	0.000999937725
0	352	3.684636652258	0.000999652258
0	355	3.696514326636	0.001000326636
0	358	3.745572218694	0.001000218694
0	361	3.757766844914	0.000999844914
0	364	3.775191822112	0.000999822112
0	367	3.778877537906	0.000999537906
0	370	3.787436360469	0.001000360469
0	373	3.790751089713	0.001000089713
0	376	3.796425849035	0.000999849035
0	379	3.805802405438	0.001000405438
0	382	3.826316103384	0.001000103384
0	385	3.885641143144	0.001000143144
0	388	3.94509731091	0.00100031091
0	391	3.951014967633	0.000999967633
0	394	4.013510301127	0.001000301127
0	397	4.029152706405	0.000999706405
0	400	4.030548147438	0.001000147438
0	403	4.095976548734	0.000999548734
0	406	4.126315748132	0.000999748132
0	409	4.136515910528	0.000999910528
0	412	4.144207903927	0.000999903927
0	415	4.198602013522	0.001000013522
0	418	4.223776838998	0.000999838998
0	421	4.248038769698	0.000999769698
0	424	4.284104901528	0.000999901528
0	427	4.287916718702	0.000999718702
0	430	4.303507161256	0.001000161256
0	433	4.309777995617	0.000999995617
0	436	4.320783217925	0.001000217925
0	439	4.33575929147	0.00100029147
0	442	4.34018008171	0.00100008171
0	445	4.366629493771	0.001000493771
0	450	4.450775829958	0.000999829958
0	451	4.451735399591	0.001000399591
0	454	4.479406265844	0.001000265844
0	457	4.495855198731	0.001000198731
0	460	4.507232026476	0.001000026476
0	463	4.597370140441	0.001000140441
0	466	4.622360218292	0.001000218292
0	469	4.626084546487	0.000999546487
0	472	4.645868701114	0.000999701114
0	475	4.699767485144	0.001000485144
0	478	4.742973867873	0.000999867873
0	481	4.759754319791	0.001000319791
0	486	4.789015709118	0.000999709118
0	487	4.789543227012	0.001000227012
0	490	4.79240221884	0.00100021884
0	493	4.796088401739	0.001000401739
0	497	4.863296466948	0.001000466948
0	500	4.871256572588	0.000999572588
0	503	4.874347081546	0.001000081546
0	506	4.887768673826	0.000999673826
0	511	4.933765412517	0.001000412517
0	514	4.936515586985	0.000999586985
0	517	4.941029840659	0.000999840659
0	520	4.968985347334	0.001000347334
0	523	4.987708833813	0.000999833813
0	529	5.085387611646	0.000999611646
0	532	5.112178786354	0.000999786354
0	535	5.131000756657	0.000999756657
0	538	5.166364583907	0.000999583907
0	541	5.20543939101	0.00100039101
0	544	5.21016778394	0.00099978394
0	547	5.251853203516	0.001000203516
0	550	5.274607195517	0.001000195517
0	553	5.292509716632	0.000999716632
0	556	5.303345478884	0.001000478884
0	559	5.318657000455	0.001000000455
0	562	5.342555227595	0.001000227595
0	567	5.361144201479	0.001000201479
0	568	5.36185426379	0.00100026379
0	571	5.400623847869	0.000999847869
0	576	5.420551938819	0.000999938819
0	577	5.420861188461	0.001000188461
0	580	5.440651206974	0.001000206974
0	583	5.470298163035	0.001000163035
0	586	5.478380067458	0.001000067458
0	589	5.591591605123	0.000999605123
0	592	5.602050066437	0.001000066437
0	595	5.617383158788	0.001000158788
0	598	5.640389334223	0.001000334223
0	601	5.668528886116	0.000999886116
0	604	5.734051264006	0.001000264006
0	607	5.748648284957	0.001000284957
0	610	5.770631038	0.001000038
0	613	5.77266251156	0.00099951156
0	616	5.808666150388	0.001000150388
0	619	5.821924478117	0.001000478117
0	622	5.853307623043	0.000999623043
0	625	5.866469935582	0.000999935582
0	628	5.893647014628	0.001000014628
0	631	5.909344969386	0.000999969386
0	634	5.926500676246	0.000999676246
0	637	5.9360690966	0.0010000966
0	640	5.951976952773	0.000999952773
0	643	5.958443751767	0.000999751767
0	646	6.009292734994	0.000999734994
0	649	6.077018072571	0.001000072571
0	652	6.084491341723	0.001000341723
0	655	6.132188579811	0.000999579811
0	658	6.138907281962	0.001000281962
0	661	6.189945080037	0.001000080037
0	664	6.201440150058	0.001000150058
0	667	6.232515369215	0.001000369215
0	670	6.268476938129	0.000999938129
0	673	6.277899519097	0.000999519097
0	676	6.310782093485	0.001000093485
0	679	6.329779624821	0.000999624821
0	682	6.359613775577	0.000999775577
0	685	6.361370825185	0.000999825185
0	688	6.368623241408	0.001000241408
0	691	6.374566914443	0.000999914443
0	696	6.467511702819	0.000999702819
0	697	6.468488938151	0.000999938151
0	700	6.484903638087	0.000999638087
0	703	6.494216873634	0.000999873634
0	706	6.498977909399	0.000999909399
0	709	6.54778165887	0.00099965887
0	712	6.588600746029	0.000999746029
0	715	6.611437521175	0.000999521175
0	718	6.633812621772	0.000999621772
0	721	6.679672245961	0.001000245961
0	724	6.69194609546	0.00100009546
0	727	6.748064590128	0.000999590128
0	730	6.772706506796	0.000999506796
0	733	6.805533830773	0.000999830773
0	736	6.817130192253	0.001000192253
0	739	6.826262607564	0.000999607564
0	742	6.867806729697	0.000999729697
0	745	6.870385109166	0.001000109166
0	748	6.881132903321	0.000999903321
0	751	6.905263783153	0.000999783153
0	754	6.95271588564	0.00099988564
0	757	6.957925943308	0.000999943308
0	760	6.998181523475	0.000999523475
0	763	7.013888560793	0.000999560793
0	766	7.017324176871	0.001000176871
0	769	7.036289811902	0.000999811902
0	772	7.055389590677	0.000999590677
0	775	7.121507377758	0.001000377758
0	778	7.176887588272	0.000999588272
0	781	7.182560453937	0.001000453937
0	784	7.21625869216	0.00099969216
0	787	7.263470409832	0.001000409832
0	790	7.273676346196	0.001000346196
0	793	7.296416750759	0.000999750759
0	796	7.305327020119	0.001000020119
0	801	7.318342058872	0.001000058872
0	802	7.319097335356	0.001000335356
0	805	7.340839395088	0.001000395088
0	810	7.400327431898	0.001000431898
0	813	7.419827368249	0.001000368249
0	817	7.462702300958	0.001000300958
0	821	7.468122301133	0.001000301133
0	824	7.470079315242	0.001000315242
0	827	7.473221231903	0.001000231903
0	830	7.493847699278	0.000999699278
0	833	7.515975888958	0.000999888958
0	838	7.587123082321	0.001000082321
0	841	7.651070350384	0.001000350384
0	844	7.664265802152	0.000999802152
0	847	7.671866993071	0.000999993071
0	850	7.689460827248	0.000999827248
0	853	7.730432429142	0.001000429142
0	856	7.75921160965	0.00099960965
0	859	7.795697298691	0.001000298691
0	862	7.802714205719	0.001000205719
0	865	7.820040261814	0.001000261814
0	868	7.821769349602	0.001000349602
0	871	7.842528273886	0.001000273886
0	874	7.86692122009	0.00100022009
0	877	7.948732976939	0.000999976939
0	880	7.950565811455	0.000999811455
0	883	7.974494673988	0.000999673988
0	886	7.990802094689	0.001000094689
0	889	7.991839917702	0.000999917702
0	892	7.999226215248	0.001000215248
0	895	8.065237251459	0.001000251459
0	898	8.10364922909	0.00100022909
0	901	8.125405019753	0.001000019753
0	906	8.140884365002	0.001000365002
0	907	8.141588868665	0.000999868665
0	910	8.20594807237	0.00100007237
0	913	8.229249877507	0.000999877507
0	916	8.29593426315	0.00100026315
0	919	8.297997288846	0.001000288846
0	924	8.310375743917	0.000999743917
0	925	8.3106378166	0.0009998166
0	928	8.315802137134	0.001000137134
0	931	8.322345332428	0.001000332428
0	934	8.360742658562	0.000999658562
0	937	8.403535956538	0.000999956538
0	940	8.45771663098	0.00099963098
0	943	8.468431038502	0.001000038502
0	946	8.477075420971	0.001000420971
0	949	8.484963808163	0.000999808163
0	952	8.497366294776	0.001000294776
0	955	8.603371950797	0.000999950797
0	958	8.611916337604	0.001000337604
0	961	8.633809631223	0.000999631223
0	964	8.639334916927	0.000999916927
0	967	8.672368735588	0.000999735588
0	970	8.689654710703	0.000999710703
0	973	8.696401379491	0.001000379491
0	976	8.75365928849	0.00100028849
0	979	8.776341339619	0.001000339619
0	982	8.806207082234	0.001000082234
0	985	8.823208519932	0.000999519932
0	988	8.835447443927	0.001000443927
0	991	8.838691921252	0.000999921252
0	994	8.885907057602	0.001000057602
0	997	8.897600253902	0.001000253902
0	1000	8.915631526963	0.000999526963
0	1003	8.955550980429	0.000999980429
0	1006	8.986815349943	0.001000349943
0	1009	9.013014328665	0.001000328665
0	1012	9.029516705707	0.000999705707
0	1015	9.10219803734	0.00100003734
0	1018	9.115015320735	0.001000320735
0	1021	9.130331561017	0.000999561017
0	1024	9.147832719726	0.000999719726
0	1027	9.152903503272	0.000999503272
0	1030	9.176256792315	0.000999792315
0	1033	9.194941062155	0.001000062155
0	1036	9.217500845737	0.000999845737
0	1039	9.281365368212	0.001000368212
0	1044	9.296144953719	0.000999953719
0	1045	9.296197702944	0.000999702944
0	1048	9.327878129714	0.001000129714
0	1051	9.375602157669	0.001000157669
0	1054	9.377855882047	0.000999882047
0	1057	9.390910822291	0.000999822291
0	1060	9.392128895851	0.000999895851
0	1063	9.454983987148	0.000999987148
0	1066	9.456955300084	0.001000300084
0	1069	9.512588375573	0.001000375573
0	1072	9.560681140818	0.001000140818
0	1075	9.589270245817	0.001000245817
0	1078	9.611814077803	0.001000077803
0	1081	9.626999430007	0.001000430007
0	1084	9.672544426914	0.001000426914
0	1087	9.67862654042	0.00099954042
0	1090	9.687031325767	0.001000325767
0	1093	9.710493654013	0.000999654013
0	1096	9.722660118456	0.001000118456
0	1099	9.777633872581	0.000999872581
0	1102	9.802698834309	0.000999834309
0	1105	9.836095675802	0.000999675802
0	1108	9.839338168455	0.001000168455
0	1112	9.848465455066	0.001000455066
0	1115	9.867993708303	0.000999708303
0	1118	9.869732017208	0.001000017208
0	1121	9.913904652045	0.000999652045
0	1125	9.931382058818	0.001000058818
0	1129	9.944853884586	0.000999884586
1	3	0.640950763201	0.000999763201
1	6	0.727851454936	0.001000454936
1	9	0.787139338743	0.001000338743
1	12	0.893117517302	0.000999517302
1	15	0.902017554104	0.000999554104
1	18	0.911924367839	0.001000367839
1	21	0.924106460599	0.001000460599
1	24	0.929470924962	0.000999924962
1	27	0.981931907427	0.000999907427
1	30	0.992118932609	0.000999932609

