version 3
run Attack50_record-0-20250912-21:40:14-7280
attr configname Attack50_record
attr datetime 20250912-21:40:14
attr datetimef 20250912-214014
attr experiment Attack50_record
attr inifile run_record.ini
attr iterationvars ""
attr iterationvarsd ""
attr iterationvarsf ""
attr measurement ""
attr network ned.LightIoTNetwork
attr processid 7280
attr repetition 0
attr replication #0
attr resultdir results
attr runnumber 0
attr seedset 123
config **.result-recording-modes all
config **.scalar-recording true
config **.vector-recording true
config output-scalar-file results/Attack50_record-0.sca
config output-vector-file results/Attack50_record-0.vec
config record-eventlog false
config network ned.LightIoTNetwork
config LightIoTNetwork.numSensorNodes 50
config **.sensor[*].mode "\"Secure\""
config **.fakeNode.enabled true
config **.fakeNode.validMac true
config **.gateway.securityEnabled true
config **.gateway.hmacWindow 3s
config description "Secure Mode Simulation (includes all scenarios)"
config network ned.LightIoTNetwork
config ned-path .
config sim-time-limit 10s
config record-eventlog true
config cmdenv-express-mode false
config network ned.LightIoTNetwork
config sim-time-limit 10s
config output-scalar-file results/secure_output.sca
config output-vector-file results/secure_output.vec
config network LightIoTNetwork
config sim-time-limit 10s
config output-scalar-file results/nosecure_output.sca
config output-vector-file results/nosecure_output.vec
config network LightIoTNetwork
config sim-time-limit 10s
config output-scalar-file results/attack_output.sca
config output-vector-file results/attack_output.vec
config output-scalar-file results/Attack50_record-0.sca
config output-vector-file results/Attack50_record-0.vec
config **.scalar-recording true
config **.vector-recording true
config **.statistic-recording true
config **.result-recording-modes all
config rng-class cMersenneTwister
config num-rngs 1
config seed-set 123
config **.scalar-recording true
config **.vector-recording true
config **.result-recording-modes all
config output-scalar-file results/Attack50_record-0.sca
config output-vector-file results/Attack50_record-0.vec
config **.sensor[*].aesKeyHex "\"00112233445566778899AABBCCDDEEFF\""
config **.gateway.aesKeyHex "\"00112233445566778899AABBCCDDEEFF\""
config **.fakeNode.aesKeyHex "\"00112233445566778899AABBCCDDEEFF\""
config **.sensor[*].sendInterval 0.5s
config **.sensor[*].mode "\"Secure\""
config **.gateway.procDelay 1ms
config **.gateway.hmacWindow 1s
config **.gateway.costForward_mJ 5
config **.gateway.costVerify_mJ 5
config **.gateway.batteryInit_mJ 5000
config **.gateway.securityEnabled true
config **.gateway.checkHmac true
config **.gateway.checkFreshness true
config **.gateway.checkDuplicate true
config **.gateway.duplicateMethod "\"set\""
config **.gateway.bloomBits 16384
config **.gateway.bloomHashes 3
config **.gateway.sbfBits 16384
config **.gateway.sbfHashes 3
config **.gateway.sbfDecay 0.02
config **.fakeNode.enabled false
config **.fakeNode.attackMode 1
config **.fakeNode.replayInterval 2.5s
config **.fakeNode.validMac true
config **.fakeNode.replayId 100000
config **.fakeNode.replayTsUs 500000
config **.fakeNode.dupBurstLen 4
config **.fakeNode.dupBurstGap 200ms
config **.fakeNode.outOfOrderJitter 80ms
config sim-time-limit 10s

vector 0 LightIoTNetwork.cloud EndToEndDelay_s ETV
0	3	0.560677898185	0.000999898185
0	6	0.58472648526	0.00100048526
0	9	0.640950763201	0.000999763201
0	12	0.676451755989	0.000999755989
0	15	0.683491732528	0.000999732528
0	18	0.727851454936	0.001000454936
0	21	0.745759279769	0.001000279769
0	24	0.787139338743	0.001000338743
0	27	0.798780498164	0.001000498164
0	30	0.825150895933	0.000999895933
0	33	0.844178014737	0.001000014737
0	36	0.858728919946	0.000999919946
0	39	0.893117517302	0.000999517302
0	42	0.899044250906	0.001000250906
0	45	0.902017554104	0.000999554104
0	48	0.911924367839	0.001000367839
0	51	0.918209947016	0.000999947016
0	54	0.924106460599	0.001000460599
0	59	0.928863489604	0.001000489604
0	60	0.929470924962	0.000999924962
0	63	0.93957224728	0.00100024728
0	66	0.941257177455	0.001000177455
0	69	0.981931907427	0.000999907427
0	74	0.992118932609	0.000999932609
0	75	0.993084773025	0.000999773025
0	80	1.032551370164	0.001000370164
0	81	1.032827588566	0.000999588566
0	84	1.052314765122	0.000999765122
0	87	1.080694297398	0.001000297398
0	90	1.094902397901	0.001000397901
0	93	1.112023514532	0.000999514532
0	96	1.128317003906	0.001000003906
0	99	1.132792020286	0.001000020286
0	102	1.135400961921	0.000999961921
0	105	1.185829734266	0.000999734266
0	108	1.191884851385	0.000999851385
0	111	1.195755175151	0.001000175151
0	114	1.197469187271	0.001000187271
0	119	1.213330177892	0.001000177892
0	120	1.213955321418	0.001000321418
0	125	1.220150308752	0.001000308752
0	126	1.22046897055	0.00099997055
0	129	1.223443384118	0.001000384118
0	132	1.22545532144	0.00100032144
0	135	1.230049708461	0.000999708461
0	138	1.238995401956	0.001000401956
0	141	1.241296386881	0.001000386881
0	144	1.281027760426	0.000999760426
0	147	1.350431794137	0.000999794137
0	150	1.481764200445	0.001000200445
0	153	1.557084216852	0.001000216852
0	156	1.591622160118	0.001000160118
0	159	1.615711049618	0.001000049618
0	162	1.622104403073	0.001000403073
0	165	1.63039430722	0.00100030722
0	168	1.686594262788	0.001000262788
0	171	1.74357188323	0.00099988323
0	174	1.798713908181	0.000999908181
0	177	1.813334562745	0.000999562745
0	180	1.836798857826	0.000999857826
0	185	1.843358336691	0.001000336691
0	186	1.844280786137	0.000999786137
0	189	1.84546915444	0.00100015444
0	192	1.849026395775	0.001000395775
0	195	1.851979688205	0.000999688205
0	198	1.885216803406	0.000999803406
0	201	1.891923168417	0.001000168417
0	204	1.899578902102	0.000999902102
0	207	1.909272519149	0.000999519149
0	210	1.910661387605	0.001000387605
0	213	1.926527438242	0.001000438242
0	216	2.017545387265	0.001000387265
0	221	2.031765420897	0.001000420897
0	222	2.032007648306	0.000999648306
0	225	2.035180263803	0.001000263803
0	228	2.051440683216	0.000999683216
0	231	2.052682099886	0.001000099886
0	234	2.07079676555	0.00099976555
0	237	2.073547908221	0.000999908221
0	240	2.093301910883	0.000999910883
0	243	2.098858058196	0.001000058196
0	246	2.119692988297	0.000999988297
0	249	2.121383374439	0.001000374439
0	252	2.125709654134	0.000999654134
0	255	2.141936098527	0.001000098527
0	258	2.164046394661	0.001000394661
0	261	2.174850093689	0.001000093689
0	264	2.176616894755	0.000999894755
0	267	2.185291492356	0.001000492356
0	270	2.217075823176	0.000999823176
0	273	2.222541741397	0.000999741397
0	276	2.228668519365	0.000999519365
0	279	2.232407756871	0.000999756871
0	282	2.242892426321	0.001000426321
0	285	2.270731017994	0.001000017994
0	288	2.296669913292	0.000999913292
0	291	2.30360666539	0.00099966539
0	294	2.322567278448	0.001000278448
0	299	2.400740393833	0.001000393833
0	302	2.405889933718	0.000999933718
0	305	2.553262641769	0.000999641769
0	308	2.586934894159	0.000999894159
0	311	2.64271642838	0.00100042838
0	314	2.656890319869	0.001000319869
0	317	2.67525673129	0.00099973129
0	320	2.695607863994	0.000999863994
0	323	2.715286032971	0.001000032971
0	326	2.730255531542	0.000999531542
0	329	2.76726667534	0.00099967534
0	332	2.797623016241	0.001000016241
0	335	2.811517533729	0.000999533729
0	338	2.827685228106	0.001000228106
0	341	2.845483932992	0.000999932992
0	344	2.880183699004	0.000999699004
0	347	2.883323555742	0.000999555742
0	350	2.885286547778	0.000999547778
0	353	2.900622101849	0.001000101849
0	356	2.901663370081	0.001000370081
0	359	2.925853545008	0.000999545008
0	362	2.944524144217	0.001000144217
0	365	2.960308171878	0.001000171878
0	368	2.989283196604	0.001000196604
0	371	3.008622440672	0.001000440672
0	374	3.009940909151	0.000999909151
0	377	3.03473269667	0.00099969667
0	380	3.056988348462	0.001000348462
0	383	3.058694502268	0.000999502268
0	386	3.061851346888	0.001000346888
0	389	3.074442929937	0.000999929937
0	392	3.078003355138	0.001000355138
0	395	3.086378493741	0.001000493741
0	398	3.099175979871	0.000999979871
0	401	3.102890986599	0.000999986599
0	404	3.127751113171	0.001000113171
0	407	3.136218326514	0.001000326514
0	410	3.139265253092	0.001000253092
0	413	3.164427745039	0.000999745039
0	416	3.172429555537	0.000999555537
0	419	3.1737133343	0.0010003343
0	422	3.191108287194	0.001000287194
0	425	3.199605194128	0.001000194128
0	430	3.225793119775	0.001000119775
0	431	3.226717115169	0.001000115169
0	434	3.268342219501	0.001000219501
0	437	3.305733885033	0.000999885033
0	440	3.341353183588	0.001000183588
0	443	3.354542378033	0.001000378033
0	446	3.396149905468	0.000999905468
0	449	3.402464649383	0.000999649383
0	452	3.42477630989	0.00100030989
0	455	3.515239343023	0.001000343023
0	458	3.588682249304	0.001000249304
0	461	3.598291932255	0.000999932255
0	464	3.626221966579	0.000999966579
0	467	3.631415371433	0.001000371433
0	470	3.644157292297	0.001000292297
0	473	3.688975135166	0.001000135166
0	476	3.76137630136	0.00100030136
0	479	3.768053372087	0.001000372087
0	482	3.769361437507	0.001000437507
0	485	3.813848476973	0.001000476973
0	488	3.82699875792	0.00099975792
0	491	3.863076662946	0.000999662946
0	494	3.866079285857	0.001000285857
0	497	3.873242914094	0.000999914094
0	500	3.891060349973	0.001000349973
0	503	3.918659202497	0.001000202497
0	506	3.927437811832	0.000999811832
0	509	3.960762710659	0.000999710659
0	512	3.980992993875	0.000999993875
0	517	3.986689868127	0.000999868127
0	518	3.987211322807	0.001000322807
0	521	3.996848107245	0.001000107245
0	524	4.002586531988	0.000999531988
0	527	4.003717914898	0.000999914898
0	530	4.01285814389	0.00100014389
0	533	4.017941963137	0.000999963137
0	536	4.034729444677	0.001000444677
0	539	4.041488483012	0.001000483012
0	542	4.075957348593	0.001000348593
0	545	4.082318714843	0.000999714843
0	548	4.084275350277	0.001000350277
0	551	4.097722305473	0.001000305473
0	554	4.098934085969	0.001000085969
0	557	4.118995120725	0.001000120725
0	560	4.156018609809	0.000999609809
0	563	4.163822830257	0.000999830257
0	566	4.185234636463	0.000999636463
0	571	4.191064939717	0.000999939717
0	572	4.191774816322	0.000999816322
0	575	4.198247677389	0.000999677389
0	578	4.229448646701	0.000999646701
0	581	4.248117477282	0.001000477282
0	584	4.27461542154	0.00100042154
0	587	4.289524363516	0.001000363516
0	590	4.328115430637	0.001000430637
0	593	4.358287417678	0.001000417678
0	596	4.36484110842	0.00100010842
0	599	4.421124089345	0.001000089345
0	602	4.427401941291	0.000999941291
0	605	4.477165102981	0.001000102981
0	608	4.547403663512	0.000999663512
0	611	4.570336282508	0.001000282508
0	614	4.579464872064	0.000999872064
0	617	4.608700677123	0.000999677123
0	620	4.622007158887	0.001000158887
0	623	4.72577242234	0.00100042234
0	626	4.752482542325	0.000999542325
0	629	4.760101057053	0.001000057053
0	632	4.765936137199	0.001000137199
0	635	4.801674305018	0.001000305018
0	638	4.82181516399	0.00100016399
0	643	4.876730754063	0.000999754063
0	646	4.896300003095	0.001000003095
0	649	4.904405373682	0.001000373682
0	654	4.929729595198	0.000999595198
0	655	4.93055667735	0.00099967735
0	660	4.936802897858	0.000999897858
0	661	4.93682841577	0.00100041577
0	664	4.94435057335	0.00099957335
0	667	4.958064257702	0.001000257702
0	670	4.961950847436	0.000999847436
0	673	4.987316406075	0.001000406075
0	676	4.996347800246	0.000999800246
0	679	5.002463613193	0.000999613193
0	682	5.037180283269	0.001000283269
0	685	5.048515203199	0.001000203199
0	688	5.056556222191	0.001000222191
0	691	5.070562538294	0.000999538294
0	694	5.078680671774	0.000999671774
0	697	5.080834920355	0.000999920355
0	702	5.086431363667	0.001000363667
0	703	5.086550601036	0.000999601036
0	706	5.099985643685	0.000999643685
0	709	5.103240697621	0.000999697621
0	712	5.113848709757	0.000999709757
0	715	5.168095954669	0.000999954669
0	718	5.170975819298	0.000999819298
0	721	5.222134439809	0.001000439809
0	724	5.233113304268	0.001000304268
0	727	5.247799354068	0.001000354068
0	730	5.256336285894	0.001000285894
0	733	5.272843131586	0.001000131586
0	736	5.279335043136	0.001000043136
0	739	5.282903719436	0.000999719436
0	742	5.314751609484	0.000999609484
0	745	5.332117461483	0.001000461483
0	748	5.380299393342	0.001000393342
0	751	5.445223383582	0.001000383582
0	754	5.489861300517	0.001000300517
0	757	5.498912075417	0.001000075417
0	760	5.524128118225	0.001000118225
0	763	5.592336681088	0.000999681088
0	766	5.612224412639	0.001000412639
0	769	5.613374537997	0.000999537997
0	772	5.683400896307	0.000999896307
0	775	5.696180787983	0.000999787983
0	778	5.731356552638	0.000999552638
0	781	5.754028967836	0.000999967836
0	784	5.786656827828	0.000999827828
0	787	5.810308443359	0.001000443359
0	790	5.812150743672	0.000999743672
0	793	5.860223731468	0.000999731468
0	796	5.871156565588	0.000999565588
0	799	5.876298110023	0.001000110023
0	802	5.888387064425	0.001000064425
0	805	5.900439662974	0.000999662974
0	808	5.916439716261	0.000999716261
0	811	5.937256372091	0.001000372091
0	814	5.94762030302	0.00100030302
0	817	5.986345197097	0.001000197097
0	820	5.997346013993	0.001000013993
0	825	6.001901038012	0.001000038012
0	828	6.002069442416	0.001000442416
0	829	6.002902487595	0.001000487595
0	832	6.010444093611	0.001000093611
0	835	6.02730758076	0.00099958076
0	838	6.033507219119	0.001000219119
0	841	6.045803517778	0.000999517778
0	844	6.051606221846	0.001000221846
0	847	6.066108937491	0.000999937491
0	852	6.079312556492	0.000999556492
0	853	6.079852543048	0.000999543048
0	856	6.127649456379	0.001000456379
0	859	6.130778830475	0.000999830475
0	862	6.1356466057	0.0009996057
0	865	6.150017584325	0.000999584325
0	868	6.162458218935	0.001000218935
0	871	6.185502492473	0.001000492473
0	874	6.189050850341	0.000999850341
0	877	6.242573725267	0.000999725267
0	880	6.266262747649	0.000999747649
0	883	6.274728984502	0.000999984502
0	888	6.283286046772	0.001000046772
0	889	6.283818501954	0.000999501954
0	892	6.304708715922	0.000999715922
0	895	6.356491088284	0.001000088284
0	898	6.421525804815	0.000999804815
0	901	6.4230488769	0.0009998769
0	904	6.448148062521	0.001000062521
0	907	6.560388961829	0.000999961829
0	910	6.569531736033	0.000999736033
0	913	6.580327705687	0.000999705687
0	916	6.644694845727	0.000999845727
0	919	6.650611909594	0.000999909594
0	922	6.654544509317	0.000999509317
0	925	6.70893526303	0.00100026303
0	928	6.735066004398	0.001000004398
0	931	6.748343187221	0.001000187221
0	934	6.764408846175	0.000999846175
0	937	6.794703512986	0.000999512986
0	940	6.845125233916	0.001000233916
0	943	6.857858628197	0.000999628197
0	946	6.873475457518	0.001000457518
0	949	6.87677203894	0.00100003894
0	952	6.88111062718	0.00099962718
0	955	6.895951156295	0.001000156295
0	958	6.904505291324	0.001000291324
0	963	6.927424925076	0.000999925076
0	964	6.927649317844	0.001000317844
0	967	6.935263179964	0.001000179964
0	970	6.94872792398	0.00099992398
0	973	6.956084729195	0.000999729195
0	976	7.014155547017	0.000999547017
0	979	7.015197842591	0.000999842591
0	982	7.022839306362	0.001000306362
0	985	7.042102829763	0.000999829763
0	988	7.046725833159	0.000999833159
0	993	7.050041436147	0.001000436147
0	994	7.050365233025	0.001000233025
0	997	7.061601034016	0.001000034016
0	1000	7.062612740718	0.000999740718
0	1003	7.081424630364	0.000999630364
0	1006	7.103576979436	0.000999979436
0	1009	7.114574963017	0.000999963017
0	1012	7.153225992084	0.000999992084
0	1015	7.177270984531	0.000999984531
0	1018	7.182092539616	0.000999539616
0	1021	7.185790005721	0.001000005721
0	1024	7.213164772582	0.000999772582
0	1027	7.224992846486	0.000999846486
0	1030	7.230702319995	0.001000319995
0	1033	7.239379648421	0.000999648421
0	1036	7.311497607385	0.000999607385
0	1041	7.35516386216	0.00099986216
0	1044	7.369009537783	0.000999537783
0	1047	7.373874303348	0.001000303348
0	1050	7.37977782816	0.00099982816
0	1053	7.476314612686	0.000999612686
0	1056	7.485887754079	0.000999754079
0	1059	7.503500136151	0.001000136151
0	1062	7.507943199085	0.001000199085
0	1065	7.57237796022	0.00099996022
0	1068	7.577407071015	0.001000071015
0	1071	7.62524895959	0.00099995959
0	1074	7.634420252287	0.001000252287
0	1077	7.690324636245	0.000999636245
0	1080	7.719927375971	0.001000375971
0	1083	7.769573944084	0.000999944084
0	1086	7.776852522673	0.000999522673
0	1089	7.781324649763	0.000999649763
0	1092	7.813755357801	0.001000357801
0	1095	7.822163660056	0.000999660056
0	1098	7.850213199364	0.001000199364
0	1101	7.856724641635	0.000999641635
0	1104	7.870095573249	0.000999573249
0	1107	7.875920132756	0.001000132756
0	1110	7.89810280546	0.00099980546
0	1113	7.943439497402	0.001000497402
0	1116	7.987189912912	0.000999912912
0	1119	7.989236959232	0.000999959232
0	1122	7.991584379062	0.001000379062
0	1125	8.003518824954	0.000999824954
0	1128	8.007734851329	0.000999851329
0	1131	8.011850656871	0.000999656871
0	1134	8.01924342385	0.00100042385
0	1137	8.024474092455	0.001000092455
0	1142	8.034220773704	0.000999773704
0	1143	8.034824537415	0.000999537415
0	1146	8.055105092493	0.001000092493
0	1149	8.063160925334	0.000999925334
0	1152	8.07937414844	0.00100014844
0	1155	8.087956484523	0.001000484523
0	1158	8.106164253107	0.001000253107
0	1161	8.109225735834	0.000999735834
0	1164	8.137141906258	0.000999906258
0	1167	8.152722608181	0.000999608181
0	1170	8.186902781133	0.000999781133
0	1173	8.204268320625	0.001000320625
0	1176	8.218297364072	0.001000364072
0	1179	8.240344843897	0.000999843897
0	1182	8.243838291077	0.001000291077
0	1185	8.274111644527	0.000999644527
0	1188	8.30412869884	0.00099969884
0	1191	8.333459733217	0.000999733217
0	1194	8.360453738203	0.000999738203
0	1197	8.363592137976	0.001000137976
0	1200	8.414295177417	0.001000177417
0	1205	8.421298088109	0.001000088109
0	1206	8.421602112637	0.001000112637
0	1209	8.484002987085	0.000999987085
0	1212	8.49441494008	0.00099994008
0	1215	8.569454141821	0.001000141821
0	1218	8.608080044409	0.001000044409
0	1221	8.642852442036	0.001000442036
0	1226	8.733637517433	0.000999517433
0	1227	8.734282410168	0.001000410168
0	1230	8.740559387043	0.001000387043
0	1233	8.771837421855	0.001000421855
0	1236	8.773806844021	0.000999844021
0	1239	8.782956479606	0.001000479606
0	1242	8.791607344359	0.001000344359
0	1245	8.807922231335	0.001000231335
0	1248	8.855325187812	0.001000187812
0	1251	8.865424888323	0.000999888323
0	1254	8.890180014608	0.001000014608
0	1257	8.902329146606	0.001000146606
0	1260	8.908141149975	0.001000149975
0	1263	8.927150393859	0.001000393859
0	1266	8.945587536156	0.000999536156
0	1269	8.964564646105	0.000999646105
0	1272	8.971792202046	0.001000202046
0	1275	8.980673041916	0.001000041916
0	1278	8.992908390262	0.001000390262
0	1281	8.995327697577	0.000999697577
0	1286	9.015699916868	0.000999916868
0	1287	9.016534619616	0.000999619616
0	1290	9.045649773231	0.000999773231
0	1293	9.051310347603	0.001000347603
0	1296	9.060380150493	0.001000150493
0	1299	9.070428032777	0.001000032777
0	1302	9.076880857604	0.000999857604
0	1305	9.108546522608	0.000999522608
0	1310	9.124283531517	0.000999531517
0	1311	9.12448167859	0.00099967859
0	1314	9.140268372672	0.001000372672
0	1317	9.162176139676	0.001000139676
0	1322	9.201755577301	0.000999577301
0	1323	9.202254566433	0.000999566433
0	1326	9.206248505527	0.000999505527
0	1329	9.211393555788	0.000999555788
0	1332	9.251448661204	0.000999661204
0	1335	9.267928257468	0.001000257468
0	1338	9.273350902809	0.000999902809
0	1341	9.339861380938	0.001000380938
0	1344	9.341645192562	0.001000192562
0	1347	9.400389976355	0.000999976355
0	1350	9.427263130875	0.001000130875
0	1353	9.443820204098	0.001000204098
0	1356	9.487145484588	0.001000484588
0	1359	9.497974670421	0.000999670421
0	1362	9.50904783958	0.00099983958
0	1365	9.532482745706	0.000999745706
0	1368	9.608523311021	0.001000311021
0	1371	9.64115456969	0.00099956969
0	1374	9.650027295643	0.001000295643
0	1377	9.69637130692	0.00100030692
0	1380	9.698361513274	0.000999513274
0	1383	9.707218377222	0.001000377222
0	1386	9.710713272424	0.001000272424
0	1389	9.72214397264	0.00099997264
0	1392	9.77361171583	0.00099971583
0	1395	9.797165217971	0.001000217971
0	1398	9.798310819198	0.000999819198
0	1401	9.802975169126	0.001000169126
0	1406	9.854232115228	0.001000115228
0	1409	9.862432488264	0.001000488264
0	1412	9.909028476499	0.001000476499
0	1415	9.932181569397	0.000999569397
0	1418	9.93906852419	0.00099952419
0	1421	9.948667075508	0.001000075508
0	1424	9.951738232303	0.001000232303
0	1427	9.961489232	0.001000232
0	1430	9.987136807222	0.000999807222
0	1433	9.993869400001	0.001000400001

