version 3
run AttackOnNoSec50_record-0-20250912-21:40:14-7287
attr configname AttackOnNoSec50_record
attr datetime 20250912-21:40:14
attr datetimef 20250912-214014
attr experiment AttackOnNoSec50_record
attr inifile run_record.ini
attr iterationvars ""
attr iterationvarsd ""
attr iterationvarsf ""
attr measurement ""
attr network ned.LightIoTNetwork
attr processid 7287
attr repetition 0
attr replication #0
attr resultdir results
attr runnumber 0
attr seedset 123
config **.result-recording-modes all
config **.scalar-recording true
config **.vector-recording true
config output-scalar-file results/AttackOnNoSec50_record-0.sca
config output-vector-file results/AttackOnNoSec50_record-0.vec
config record-eventlog false
config network ned.LightIoTNetwork
config LightIoTNetwork.numSensorNodes 50
config **.sensor[*].mode "\"NoSecurity\""
config **.gateway.securityEnabled false
config **.gateway.procDelay 0s
config **.gateway.costVerify_mJ 0
config **.fakeNode.enabled true
config **.fakeNode.validMac false
config description "Secure Mode Simulation (includes all scenarios)"
config network ned.LightIoTNetwork
config ned-path .
config sim-time-limit 10s
config record-eventlog true
config cmdenv-express-mode false
config network ned.LightIoTNetwork
config sim-time-limit 10s
config output-scalar-file results/secure_output.sca
config output-vector-file results/secure_output.vec
config network LightIoTNetwork
config sim-time-limit 10s
config output-scalar-file results/nosecure_output.sca
config output-vector-file results/nosecure_output.vec
config network LightIoTNetwork
config sim-time-limit 10s
config output-scalar-file results/attack_output.sca
config output-vector-file results/attack_output.vec
config output-scalar-file results/AttackOnNoSec50_record-0.sca
config output-vector-file results/AttackOnNoSec50_record-0.vec
config **.scalar-recording true
config **.vector-recording true
config **.statistic-recording true
config **.result-recording-modes all
config rng-class cMersenneTwister
config num-rngs 1
config seed-set 123
config **.scalar-recording true
config **.vector-recording true
config **.result-recording-modes all
config output-scalar-file results/AttackOnNoSec50_record-0.sca
config output-vector-file results/AttackOnNoSec50_record-0.vec
config **.sensor[*].aesKeyHex "\"00112233445566778899AABBCCDDEEFF\""
config **.gateway.aesKeyHex "\"00112233445566778899AABBCCDDEEFF\""
config **.fakeNode.aesKeyHex "\"00112233445566778899AABBCCDDEEFF\""
config **.sensor[*].sendInterval 0.5s
config **.sensor[*].mode "\"Secure\""
config **.gateway.procDelay 1ms
config **.gateway.hmacWindow 1s
config **.gateway.costForward_mJ 5
config **.gateway.costVerify_mJ 5
config **.gateway.batteryInit_mJ 5000
config **.gateway.securityEnabled true
config **.gateway.checkHmac true
config **.gateway.checkFreshness true
config **.gateway.checkDuplicate true
config **.gateway.duplicateMethod "\"set\""
config **.gateway.bloomBits 16384
config **.gateway.bloomHashes 3
config **.gateway.sbfBits 16384
config **.gateway.sbfHashes 3
config **.gateway.sbfDecay 0.02
config **.fakeNode.enabled false
config **.fakeNode.attackMode 1
config **.fakeNode.replayInterval 2.5s
config **.fakeNode.validMac true
config **.fakeNode.replayId 100000
config **.fakeNode.replayTsUs 500000
config **.fakeNode.dupBurstLen 4
config **.fakeNode.dupBurstGap 200ms
config **.fakeNode.outOfOrderJitter 80ms
config sim-time-limit 10s

vector 0 LightIoTNetwork.cloud EndToEndDelay_s ETV
0	3	0.559677898185	-1.01815e-07
0	6	0.58372648526	4.8526e-07
0	9	0.639950763201	-2.36799e-07
0	12	0.675451755989	-2.44011e-07
0	15	0.682491732528	-2.67472e-07
0	18	0.726851454936	4.54936e-07
0	21	0.744759279769	2.79769e-07
0	24	0.786139338743	3.38743e-07
0	27	0.797780498164	4.98164e-07
0	30	0.824150895933	-1.04067e-07
0	33	0.843178014737	1.4737e-08
0	36	0.857728919946	-8.0054e-08
0	39	0.892117517302	-4.82698e-07
0	42	0.898044250906	2.50906e-07
0	45	0.901017554104	-4.45896e-07
0	48	0.910924367839	3.67839e-07
0	51	0.917209947016	-5.2984e-08
0	54	0.923106460599	4.60599e-07
0	57	0.927863489604	4.89604e-07
0	60	0.928470924962	-7.5038e-08
0	63	0.93857224728	2.4728e-07
0	66	0.940257177455	1.77455e-07
0	69	0.980931907427	-9.2573e-08
0	72	0.991118932609	-6.7391e-08
0	75	0.992084773025	-2.26975e-07
0	78	1.031551370164	3.70164e-07
0	81	1.031827588566	-4.11434e-07
0	84	1.051314765122	-2.34878e-07
0	87	1.079694297398	2.97398e-07
0	90	1.093902397901	3.97901e-07
0	93	1.111023514532	-4.85468e-07
0	96	1.127317003906	3.906e-09
0	99	1.131792020286	2.0286e-08
0	102	1.134400961921	-3.8079e-08
0	105	1.184829734266	-2.65734e-07
0	108	1.190884851385	-1.48615e-07
0	111	1.194755175151	1.75151e-07
0	114	1.196469187271	1.87271e-07
0	117	1.212330177892	1.77892e-07
0	120	1.212955321418	3.21418e-07
0	123	1.219150308752	3.08752e-07
0	126	1.21946897055	-2.945e-08
0	129	1.222443384118	3.84118e-07
0	132	1.22445532144	3.2144e-07
0	135	1.229049708461	-2.91539e-07
0	138	1.237995401956	4.01956e-07
0	141	1.240296386881	3.86881e-07
0	144	1.280027760426	-2.39574e-07
0	147	1.349431794137	-2.05863e-07
0	150	1.480764200445	2.00445e-07
0	153	1.556084216852	2.16852e-07
0	156	1.590622160118	1.60118e-07
0	159	1.614711049618	4.9618e-08
0	162	1.621104403073	4.03073e-07
0	165	1.62939430722	3.0722e-07
0	168	1.685594262788	2.62788e-07
0	171	1.74257188323	-1.1677e-07
0	174	1.797713908181	-9.1819e-08
0	177	1.812334562745	-4.37255e-07
0	180	1.835798857826	-1.42174e-07
0	183	1.842358336691	3.36691e-07
0	186	1.843280786137	-2.13863e-07
0	189	1.84446915444	1.5444e-07
0	192	1.848026395775	3.95775e-07
0	195	1.850979688205	-3.11795e-07
0	198	1.884216803406	-1.96594e-07
0	201	1.890923168417	1.68417e-07
0	204	1.898578902102	-9.7898e-08
0	207	1.908272519149	-4.80851e-07
0	210	1.909661387605	3.87605e-07
0	213	1.925527438242	4.38242e-07
0	216	2.016545387265	3.87265e-07
0	219	2.030765420897	4.20897e-07
0	222	2.031007648306	-3.51694e-07
0	225	2.034180263803	2.63803e-07
0	228	2.050440683216	-3.16784e-07
0	231	2.051682099886	9.9886e-08
0	234	2.06979676555	-2.3445e-07
0	237	2.072547908221	-9.1779e-08
0	240	2.092301910883	-8.9117e-08
0	243	2.097858058196	5.8196e-08
0	246	2.118692988297	-1.1703e-08
0	249	2.120383374439	3.74439e-07
0	252	2.124709654134	-3.45866e-07
0	255	2.140936098527	9.8527e-08
0	258	2.163046394661	3.94661e-07
0	261	2.173850093689	9.3689e-08
0	264	2.175616894755	-1.05245e-07
0	267	2.184291492356	4.92356e-07
0	270	2.216075823176	-1.76824e-07
0	273	2.221541741397	-2.58603e-07
0	276	2.227668519365	-4.80635e-07
0	279	2.231407756871	-2.43129e-07
0	282	2.241892426321	4.26321e-07
0	285	2.269731017994	1.7994e-08
0	288	2.295669913292	-8.6708e-08
0	291	2.30260666539	-3.3461e-07
0	294	2.321567278448	2.78448e-07
0	297	2.322958909208	1.822958909208
0	300	2.399740393833	3.93833e-07
0	303	2.404889933718	-6.6282e-08
0	306	2.552262641769	-3.58231e-07
0	309	2.585934894159	-1.05841e-07
0	312	2.64171642838	4.2838e-07
0	315	2.655890319869	3.19869e-07
0	318	2.67425673129	-2.6871e-07
0	321	2.694607863994	-1.36006e-07
0	324	2.714286032971	3.2971e-08
0	327	2.729255531542	-4.68458e-07
0	330	2.76626667534	-3.2466e-07
0	333	2.796623016241	1.6241e-08
0	336	2.810517533729	-4.66271e-07
0	339	2.826685228106	2.28106e-07
0	342	2.844483932992	-6.7008e-08
0	345	2.879183699004	-3.00996e-07
0	348	2.882323555742	-4.44258e-07
0	351	2.884286547778	-4.52222e-07
0	354	2.899622101849	1.01849e-07
0	357	2.900663370081	3.70081e-07
0	360	2.924853545008	-4.54992e-07
0	363	2.943524144217	1.44217e-07
0	366	2.959308171878	1.71878e-07
0	369	2.988283196604	1.96604e-07
0	372	3.007622440672	4.40672e-07
0	375	3.008940909151	-9.0849e-08
0	378	3.03373269667	-3.0333e-07
0	381	3.055988348462	3.48462e-07
0	384	3.057694502268	-4.97732e-07
0	387	3.060851346888	3.46888e-07
0	390	3.073442929937	-7.0063e-08
0	393	3.077003355138	3.55138e-07
0	396	3.085378493741	4.93741e-07
0	399	3.098175979871	-2.0129e-08
0	402	3.101890986599	-1.3401e-08
0	405	3.126751113171	1.13171e-07
0	408	3.135218326514	3.26514e-07
0	411	3.138265253092	2.53092e-07
0	414	3.163427745039	-2.54961e-07
0	417	3.171429555537	-4.44463e-07
0	420	3.1727133343	3.343e-07
0	423	3.190108287194	2.87194e-07
0	426	3.198605194128	1.94128e-07
0	429	3.224793119775	1.19775e-07
0	432	3.225717115169	1.15169e-07
0	435	3.267342219501	2.19501e-07
0	438	3.304733885033	-1.14967e-07
0	441	3.340353183588	1.83588e-07
0	444	3.353542378033	3.78033e-07
0	447	3.395149905468	-9.4532e-08
0	450	3.401464649383	-3.50617e-07
0	453	3.42377630989	3.0989e-07
0	456	3.514239343023	3.43023e-07
0	459	3.587682249304	2.49304e-07
0	462	3.597291932255	-6.7745e-08
0	465	3.625221966579	-3.3421e-08
0	468	3.630415371433	3.71433e-07
0	471	3.643157292297	2.92297e-07
0	474	3.687975135166	1.35166e-07
0	477	3.76037630136	3.0136e-07
0	480	3.767053372087	3.72087e-07
0	483	3.768361437507	4.37507e-07
0	486	3.812848476973	4.76973e-07
0	489	3.82599875792	-2.4208e-07
0	492	3.862076662946	-3.37054e-07
0	495	3.865079285857	2.85857e-07
0	498	3.872242914094	-8.5906e-08
0	501	3.890060349973	3.49973e-07
0	504	3.917659202497	2.02497e-07
0	507	3.926437811832	-1.88168e-07
0	510	3.959762710659	-2.89341e-07
0	513	3.979992993875	-6.125e-09
0	516	3.985689868127	-1.31873e-07
0	519	3.986211322807	3.22807e-07
0	522	3.995848107245	1.07245e-07
0	525	4.001586531988	-4.68012e-07
0	528	4.002717914898	-8.5102e-08
0	531	4.01185814389	1.4389e-07
0	534	4.016941963137	-3.6863e-08
0	537	4.033729444677	4.44677e-07
0	540	4.040488483012	4.83012e-07
0	543	4.074957348593	3.48593e-07
0	546	4.081318714843	-2.85157e-07
0	549	4.083275350277	3.50277e-07
0	552	4.096722305473	3.05473e-07
0	555	4.097934085969	8.5969e-08
0	558	4.117995120725	1.20725e-07
0	561	4.155018609809	-3.90191e-07
0	564	4.162822830257	-1.69743e-07
0	567	4.184234636463	-3.63537e-07
0	570	4.190064939717	-6.0283e-08
0	573	4.190774816322	-1.83678e-07
0	576	4.197247677389	-3.22611e-07
0	579	4.228448646701	-3.53299e-07
0	582	4.247117477282	4.77282e-07
0	585	4.27361542154	4.2154e-07
0	588	4.288524363516	3.63516e-07
0	591	4.327115430637	4.30637e-07
0	594	4.357287417678	4.17678e-07
0	597	4.36384110842	1.0842e-07
0	600	4.420124089345	8.9345e-08
0	603	4.426401941291	-5.8709e-08
0	606	4.476165102981	1.02981e-07
0	609	4.546403663512	-3.36488e-07
0	612	4.569336282508	2.82508e-07
0	615	4.578464872064	-1.27936e-07
0	618	4.607700677123	-3.22877e-07
0	621	4.621007158887	1.58887e-07
0	624	4.72477242234	4.2234e-07
0	627	4.751482542325	-4.57675e-07
0	630	4.759101057053	5.7053e-08
0	633	4.764936137199	1.37199e-07
0	636	4.800674305018	3.05018e-07
0	639	4.82081516399	1.6399e-07
0	642	4.822958909208	4.322958909208
0	645	4.875730754063	-2.45937e-07
0	648	4.895300003095	3.095e-09
0	651	4.903405373682	3.73682e-07
0	654	4.928729595198	-4.04802e-07
0	657	4.92955667735	-3.2265e-07
0	660	4.935802897858	-1.02142e-07
0	663	4.93582841577	4.1577e-07
0	666	4.94335057335	-4.2665e-07
0	669	4.957064257702	2.57702e-07
0	672	4.960950847436	-1.52564e-07
0	675	4.986316406075	4.06075e-07
0	678	4.995347800246	-1.99754e-07
0	681	5.001463613193	-3.86807e-07
0	684	5.036180283269	2.83269e-07
0	687	5.047515203199	2.03199e-07
0	690	5.055556222191	2.22191e-07
0	693	5.069562538294	-4.61706e-07
0	696	5.077680671774	-3.28226e-07
0	699	5.079834920355	-7.9645e-08
0	702	5.085431363667	3.63667e-07
0	705	5.085550601036	-3.98964e-07
0	708	5.098985643685	-3.56315e-07
0	711	5.102240697621	-3.02379e-07
0	714	5.112848709757	-2.90243e-07
0	717	5.167095954669	-4.5331e-08
0	720	5.169975819298	-1.80702e-07
0	723	5.221134439809	4.39809e-07
0	726	5.232113304268	3.04268e-07
0	729	5.246799354068	3.54068e-07
0	732	5.255336285894	2.85894e-07
0	735	5.271843131586	1.31586e-07
0	738	5.278335043136	4.3136e-08
0	741	5.281903719436	-2.80564e-07
0	744	5.313751609484	-3.90516e-07
0	747	5.331117461483	4.61483e-07
0	750	5.379299393342	3.93342e-07
0	753	5.444223383582	3.83582e-07
0	756	5.488861300517	3.00517e-07
0	759	5.497912075417	7.5417e-08
0	762	5.523128118225	1.18225e-07
0	765	5.591336681088	-3.18912e-07
0	768	5.611224412639	4.12639e-07
0	771	5.612374537997	-4.62003e-07
0	774	5.682400896307	-1.03693e-07
0	777	5.695180787983	-2.12017e-07
0	780	5.730356552638	-4.47362e-07
0	783	5.753028967836	-3.2164e-08
0	786	5.785656827828	-1.72172e-07
0	789	5.809308443359	4.43359e-07
0	792	5.811150743672	-2.56328e-07
0	795	5.859223731468	-2.68532e-07
0	798	5.870156565588	-4.34412e-07
0	801	5.875298110023	1.10023e-07
0	804	5.887387064425	6.4425e-08
0	807	5.899439662974	-3.37026e-07
0	810	5.915439716261	-2.83739e-07
0	813	5.936256372091	3.72091e-07
0	816	5.94662030302	3.0302e-07
0	819	5.985345197097	1.97097e-07
0	822	5.996346013993	1.3993e-08
0	825	6.000901038012	3.8012e-08
0	828	6.001069442416	4.42416e-07
0	831	6.001902487595	4.87595e-07
0	834	6.009444093611	9.3611e-08
0	837	6.02630758076	-4.1924e-07
0	840	6.032507219119	2.19119e-07
0	843	6.044803517778	-4.82222e-07
0	846	6.050606221846	2.21846e-07
0	849	6.065108937491	-6.2509e-08
0	852	6.078312556492	-4.43508e-07
0	855	6.078852543048	-4.56952e-07
0	858	6.126649456379	4.56379e-07
0	861	6.129778830475	-1.69525e-07
0	864	6.1346466057	-3.943e-07
0	867	6.149017584325	-4.15675e-07
0	870	6.161458218935	2.18935e-07
0	873	6.184502492473	4.92473e-07
0	876	6.188050850341	-1.49659e-07
0	879	6.241573725267	-2.74733e-07
0	882	6.265262747649	-2.52351e-07
0	885	6.273728984502	-1.5498e-08
0	888	6.282286046772	4.6772e-08
0	891	6.282818501954	-4.98046e-07
0	894	6.303708715922	-2.84078e-07
0	897	6.355491088284	8.8284e-08
0	900	6.420525804815	-1.95185e-07
0	903	6.4220488769	-1.231e-07
0	906	6.447148062521	6.2521e-08
0	909	6.559388961829	-3.8171e-08
0	912	6.568531736033	-2.63967e-07
0	915	6.579327705687	-2.94313e-07
0	918	6.643694845727	-1.54273e-07
0	921	6.649611909594	-9.0406e-08
0	924	6.653544509317	-4.90683e-07
0	927	6.70793526303	2.6303e-07
0	930	6.734066004398	4.398e-09
0	933	6.747343187221	1.87221e-07
0	936	6.763408846175	-1.53825e-07
0	939	6.793703512986	-4.87014e-07
0	942	6.844125233916	2.33916e-07
0	945	6.856858628197	-3.71803e-07
0	948	6.872475457518	4.57518e-07
0	951	6.87577203894	3.894e-08
0	954	6.88011062718	-3.7282e-07
0	957	6.894951156295	1.56295e-07
0	960	6.903505291324	2.91324e-07
0	963	6.926424925076	-7.4924e-08
0	966	6.926649317844	3.17844e-07
0	969	6.934263179964	1.79964e-07
0	972	6.94772792398	-7.602e-08
0	975	6.955084729195	-2.70805e-07
0	978	7.013155547017	-4.52983e-07
0	981	7.014197842591	-1.57409e-07
0	984	7.021839306362	3.06362e-07
0	987	7.041102829763	-1.70237e-07
0	990	7.045725833159	-1.66841e-07
0	993	7.049041436147	4.36147e-07
0	996	7.049365233025	2.33025e-07
0	999	7.060601034016	3.4016e-08
0	1002	7.061612740718	-2.59282e-07
0	1005	7.080424630364	-3.69636e-07
0	1008	7.102576979436	-2.0564e-08
0	1011	7.113574963017	-3.6983e-08
0	1014	7.152225992084	-7.916e-09
0	1017	7.176270984531	-1.5469e-08
0	1020	7.181092539616	-4.60384e-07
0	1023	7.184790005721	5.721e-09
0	1026	7.212164772582	-2.27418e-07
0	1029	7.223992846486	-1.53514e-07
0	1032	7.229702319995	3.19995e-07
0	1035	7.238379648421	-3.51579e-07
0	1038	7.310497607385	-3.92615e-07
0	1041	7.322958909208	6.822958909208
0	1044	7.35416386216	-1.3784e-07
0	1047	7.368009537783	-4.62217e-07
0	1050	7.372874303348	3.03348e-07
0	1053	7.37877782816	-1.7184e-07
0	1056	7.475314612686	-3.87314e-07
0	1059	7.484887754079	-2.45921e-07
0	1062	7.502500136151	1.36151e-07
0	1065	7.506943199085	1.99085e-07
0	1068	7.57137796022	-3.978e-08
0	1071	7.576407071015	7.1015e-08
0	1074	7.62424895959	-4.041e-08
0	1077	7.633420252287	2.52287e-07
0	1080	7.689324636245	-3.63755e-07
0	1083	7.718927375971	3.75971e-07
0	1086	7.768573944084	-5.5916e-08
0	1089	7.775852522673	-4.77327e-07
0	1092	7.780324649763	-3.50237e-07
0	1095	7.812755357801	3.57801e-07
0	1098	7.821163660056	-3.39944e-07
0	1101	7.849213199364	1.99364e-07
0	1104	7.855724641635	-3.58365e-07
0	1107	7.869095573249	-4.26751e-07
0	1110	7.874920132756	1.32756e-07
0	1113	7.89710280546	-1.9454e-07
0	1116	7.942439497402	4.97402e-07
0	1119	7.986189912912	-8.7088e-08
0	1122	7.988236959232	-4.0768e-08
0	1125	7.990584379062	3.79062e-07
0	1128	8.002518824954	-1.75046e-07
0	1131	8.006734851329	-1.48671e-07
0	1134	8.010850656871	-3.43129e-07
0	1137	8.01824342385	4.2385e-07
0	1140	8.023474092455	9.2455e-08
0	1143	8.033220773704	-2.26296e-07
0	1146	8.033824537415	-4.62585e-07
0	1149	8.054105092493	9.2493e-08
0	1152	8.062160925334	-7.4666e-08
0	1155	8.07837414844	1.4844e-07
0	1158	8.086956484523	4.84523e-07
0	1161	8.105164253107	2.53107e-07
0	1164	8.108225735834	-2.64166e-07
0	1167	8.136141906258	-9.3742e-08
0	1170	8.151722608181	-3.91819e-07
0	1173	8.185902781133	-2.18867e-07
0	1176	8.203268320625	3.20625e-07
0	1179	8.217297364072	3.64072e-07
0	1182	8.239344843897	-1.56103e-07
0	1185	8.242838291077	2.91077e-07
0	1188	8.273111644527	-3.55473e-07
0	1191	8.30312869884	-3.0116e-07
0	1194	8.332459733217	-2.66783e-07
0	1197	8.359453738203	-2.61797e-07
0	1200	8.362592137976	1.37976e-07
0	1203	8.413295177417	1.77417e-07
0	1206	8.420298088109	8.8109e-08
0	1209	8.420602112637	1.12637e-07
0	1212	8.483002987085	-1.2915e-08
0	1215	8.49341494008	-5.992e-08
0	1218	8.568454141821	1.41821e-07
0	1221	8.607080044409	4.4409e-08
0	1224	8.641852442036	4.42036e-07
0	1227	8.732637517433	-4.82567e-07
0	1230	8.733282410168	4.10168e-07
0	1233	8.739559387043	3.87043e-07
0	1236	8.770837421855	4.21855e-07
0	1239	8.772806844021	-1.55979e-07
0	1242	8.781956479606	4.79606e-07
0	1245	8.790607344359	3.44359e-07
0	1248	8.806922231335	2.31335e-07
0	1251	8.854325187812	1.87812e-07
0	1254	8.864424888323	-1.11677e-07
0	1257	8.889180014608	1.4608e-08
0	1260	8.901329146606	1.46606e-07
0	1263	8.907141149975	1.49975e-07
0	1266	8.926150393859	3.93859e-07
0	1269	8.944587536156	-4.63844e-07
0	1272	8.963564646105	-3.53895e-07
0	1275	8.970792202046	2.02046e-07
0	1278	8.979673041916	4.1916e-08
0	1281	8.991908390262	3.90262e-07
0	1284	8.994327697577	-3.02423e-07
0	1287	9.014699916868	-8.3132e-08
0	1290	9.015534619616	-3.80384e-07
0	1293	9.044649773231	-2.26769e-07
0	1296	9.050310347603	3.47603e-07
0	1299	9.059380150493	1.50493e-07
0	1302	9.069428032777	3.2777e-08
0	1305	9.075880857604	-1.42396e-07
0	1308	9.107546522608	-4.77392e-07
0	1311	9.123283531517	-4.68483e-07
0	1314	9.12348167859	-3.2141e-07
0	1317	9.139268372672	3.72672e-07
0	1320	9.161176139676	1.39676e-07
0	1323	9.200755577301	-4.22699e-07
0	1326	9.201254566433	-4.33567e-07
0	1329	9.205248505527	-4.94473e-07
0	1332	9.210393555788	-4.44212e-07
0	1335	9.250448661204	-3.38796e-07
0	1338	9.266928257468	2.57468e-07
0	1341	9.272350902809	-9.7191e-08
0	1344	9.338861380938	3.80938e-07
0	1347	9.340645192562	1.92562e-07
0	1350	9.399389976355	-2.3645e-08
0	1353	9.426263130875	1.30875e-07
0	1356	9.442820204098	2.04098e-07
0	1359	9.486145484588	4.84588e-07
0	1362	9.496974670421	-3.29579e-07
0	1365	9.50804783958	-1.6042e-07
0	1368	9.531482745706	-2.54294e-07
0	1371	9.607523311021	3.11021e-07
0	1374	9.64015456969	-4.3031e-07
0	1377	9.649027295643	2.95643e-07
0	1380	9.69537130692	3.0692e-07
0	1383	9.697361513274	-4.86726e-07
0	1386	9.706218377222	3.77222e-07
0	1389	9.709713272424	2.72424e-07
0	1392	9.72114397264	-2.736e-08
0	1395	9.77261171583	-2.8417e-07
0	1398	9.796165217971	2.17971e-07
0	1401	9.797310819198	-1.80802e-07
0	1404	9.801975169126	1.69126e-07
0	1407	9.822958909208	9.322958909208
0	1410	9.853232115228	1.15228e-07
0	1413	9.861432488264	4.88264e-07
0	1416	9.908028476499	4.76499e-07
0	1419	9.931181569397	-4.30603e-07
0	1422	9.93806852419	-4.7581e-07
0	1425	9.947667075508	7.5508e-08
0	1428	9.950738232303	2.32303e-07
0	1431	9.960489232	2.32e-07
0	1434	9.986136807222	-1.92778e-07
0	1437	9.992869400001	4.00001e-07

