file 21574 1757799341                                           
version 3
run Attack50_record-0-20250914-01:05:41-57579
attr configname Attack50_record
attr datetime 20250914-01:05:41
attr datetimef 20250914-010541
attr experiment Attack50_record
attr inifile run_record.ini
attr iterationvars ""
attr iterationvarsd ""
attr iterationvarsf ""
attr measurement ""
attr network ned.LightIoTNetwork
attr processid 57579
attr repetition 0
attr replication #0
attr resultdir results
attr runnumber 0
attr seedset 123
config output-scalar-file results/Attack50_record.sca
config output-vector-file results/Attack50_record.vec
config **.result-recording-modes all
config **.scalar-recording true
config **.vector-recording true
config network ned.LightIoTNetwork
config LightIoTNetwork.numSensorNodes 50
config **.sensor[*].mode "\"Secure\""
config **.fakeNode.enabled true
config **.fakeNode.validMac true
config **.gateway.securityEnabled true
config **.gateway.hmacWindow 3s
config description "Secure Mode Simulation (includes all scenarios)"
config network ned.LightIoTNetwork
config ned-path .
config sim-time-limit 10s
config record-eventlog true
config cmdenv-express-mode false
config network ned.LightIoTNetwork
config sim-time-limit 10s
config output-scalar-file results/secure_output.sca
config output-vector-file results/secure_output.vec
config network LightIoTNetwork
config sim-time-limit 10s
config output-scalar-file results/nosecure_output.sca
config output-vector-file results/nosecure_output.vec
config network LightIoTNetwork
config sim-time-limit 10s
config output-scalar-file results/attack_output.sca
config output-vector-file results/attack_output.vec
config output-scalar-file results/Attack50_record-0.sca
config output-vector-file results/Attack50_record-0.vec
config **.scalar-recording true
config **.vector-recording true
config **.statistic-recording true
config **.result-recording-modes all
config rng-class cMersenneTwister
config num-rngs 1
config seed-set 123
config output-scalar-file results/Attack50_record-0.sca
config output-vector-file results/Attack50_record-0.vec
config **.scalar-recording true
config **.vector-recording true
config **.result-recording-modes all
config **.sensor[*].aesKeyHex "\"00112233445566778899AABBCCDDEEFF\""
config **.gateway.aesKeyHex "\"00112233445566778899AABBCCDDEEFF\""
config **.fakeNode.aesKeyHex "\"00112233445566778899AABBCCDDEEFF\""
config **.sensor[*].sendInterval 0.5s
config **.sensor[*].mode "\"Secure\""
config **.gateway.procDelay 1ms
config **.gateway.hmacWindow 1s
config **.gateway.costForward_mJ 5
config **.gateway.costVerify_mJ 5
config **.gateway.batteryInit_mJ 5000
config **.gateway.securityEnabled true
config **.gateway.checkHmac true
config **.gateway.checkFreshness true
config **.gateway.checkDuplicate true
config **.gateway.duplicateMethod "\"set\""
config **.gateway.bloomBits 16384
config **.gateway.bloomHashes 3
config **.gateway.sbfBits 16384
config **.gateway.sbfHashes 3
config **.gateway.sbfDecay 0.02
config **.fakeNode.enabled false
config **.fakeNode.attackMode 1
config **.fakeNode.replayInterval 2.5s
config **.fakeNode.validMac true
config **.fakeNode.replayId 100000
config **.fakeNode.replayTsUs 500000
config **.fakeNode.dupBurstLen 4
config **.fakeNode.dupBurstGap 200ms
config **.fakeNode.outOfOrderJitter 80ms
config sim-time-limit 10s

vector 0 LightIoTNetwork.cloud e2eDelay_valid ETV
vector 1 LightIoTNetwork.cloud e2eDelay_debug ETV
0	3390 17838 3 1495 0.560677898185 5.691998446057 495 0.000999500904 1.839412535349 2.333408307006 3.3839324667837
1	21228 345 3 30 0.560677898185 0.825150895933 10 0.000999732528 0.001000498164 0.010001102708 1.0002206507982e-05

