version 3
run Attack5_record-0-20250914-01:05:41-57577
attr configname Attack5_record
attr datetime 20250914-01:05:41
attr datetimef 20250914-010541
attr experiment Attack5_record
attr inifile run_record.ini
attr iterationvars ""
attr iterationvarsd ""
attr iterationvarsf ""
attr measurement ""
attr network ned.LightIoTNetwork
attr processid 57577
attr repetition 0
attr replication #0
attr resultdir results
attr runnumber 0
attr seedset 123
config output-scalar-file results/Attack5_record.sca
config output-vector-file results/Attack5_record.vec
config **.result-recording-modes all
config **.scalar-recording true
config **.vector-recording true
config network ned.LightIoTNetwork
config LightIoTNetwork.numSensorNodes 5
config **.sensor[*].mode "\"Secure\""
config **.fakeNode.enabled true
config **.fakeNode.validMac true
config **.gateway.securityEnabled true
config **.gateway.hmacWindow 1s
config description "Secure Mode Simulation (includes all scenarios)"
config network ned.LightIoTNetwork
config ned-path .
config sim-time-limit 10s
config record-eventlog true
config cmdenv-express-mode false
config network ned.LightIoTNetwork
config sim-time-limit 10s
config output-scalar-file results/secure_output.sca
config output-vector-file results/secure_output.vec
config network LightIoTNetwork
config sim-time-limit 10s
config output-scalar-file results/nosecure_output.sca
config output-vector-file results/nosecure_output.vec
config network LightIoTNetwork
config sim-time-limit 10s
config output-scalar-file results/attack_output.sca
config output-vector-file results/attack_output.vec
config output-scalar-file results/Attack5_record-0.sca
config output-vector-file results/Attack5_record-0.vec
config **.scalar-recording true
config **.vector-recording true
config **.statistic-recording true
config **.result-recording-modes all
config rng-class cMersenneTwister
config num-rngs 1
config seed-set 123
config output-scalar-file results/Attack5_record-0.sca
config output-vector-file results/Attack5_record-0.vec
config **.scalar-recording true
config **.vector-recording true
config **.result-recording-modes all
config **.sensor[*].aesKeyHex "\"00112233445566778899AABBCCDDEEFF\""
config **.gateway.aesKeyHex "\"00112233445566778899AABBCCDDEEFF\""
config **.fakeNode.aesKeyHex "\"00112233445566778899AABBCCDDEEFF\""
config **.sensor[*].sendInterval 0.5s
config **.sensor[*].mode "\"Secure\""
config **.gateway.procDelay 1ms
config **.gateway.hmacWindow 1s
config **.gateway.costForward_mJ 5
config **.gateway.costVerify_mJ 5
config **.gateway.batteryInit_mJ 5000
config **.gateway.securityEnabled true
config **.gateway.checkHmac true
config **.gateway.checkFreshness true
config **.gateway.checkDuplicate true
config **.gateway.duplicateMethod "\"set\""
config **.gateway.bloomBits 16384
config **.gateway.bloomHashes 3
config **.gateway.sbfBits 16384
config **.gateway.sbfHashes 3
config **.gateway.sbfDecay 0.02
config **.fakeNode.enabled false
config **.fakeNode.attackMode 1
config **.fakeNode.replayInterval 2.5s
config **.fakeNode.validMac true
config **.fakeNode.replayId 100000
config **.fakeNode.replayTsUs 500000
config **.fakeNode.dupBurstLen 4
config **.fakeNode.dupBurstGap 200ms
config **.fakeNode.outOfOrderJitter 80ms
config sim-time-limit 10s

vector 0 LightIoTNetwork.cloud e2eDelay_valid ETV
vector 1 LightIoTNetwork.cloud e2eDelay_debug ETV
0	3	0.727851454936	0.001000454936
0	6	0.787139338743	0.001000338743
0	9	0.929470924962	0.000999924962
0	12	1.197469187271	0.001000187271
0	15	1.213955321418	0.001000321418
0	18	1.232982931448	0.000999931448
0	21	1.309054369618	0.001000369618
0	24	1.451417822017	0.000999822017
0	27	1.696581080532	0.001000080532
0	30	1.706265967478	0.000999967478
0	33	1.760985707491	0.000999707491
0	36	1.857130789663	0.000999789663
0	39	1.942510258801	0.001000258801
0	44	2.214235397218	0.001000397218
0	45	2.215064053959	0.001000053959
0	48	2.259078898234	0.000999898234
0	51	2.321125865983	0.000999865983
0	54	2.431722010531	0.001000010531
0	58	2.699381855433	0.000999855433
0	61	2.704337152628	0.001000152628
0	63	2.726970631167	2.226970631167
0	67	2.771810598625	0.000999598625
0	71	2.844030836829	0.000999836829
0	75	2.914137100124	0.001000100124
0	79	3.208772095223	0.001000095223
0	82	3.228136692824	0.000999692824
0	85	3.284989800654	0.000999800654
0	88	3.312280010082	0.001000010082
0	91	3.40816281787	0.00099981787
0	94	3.676317270822	0.001000270822
0	97	3.68650934135	0.00100034135
0	100	3.78814493767	0.00099993767
0	103	3.833513027871	0.001000027871
0	106	3.911345576727	0.000999576727
0	109	4.169103619782	0.000999619782
0	112	4.199949437542	0.001000437542
0	115	4.267922987486	0.000999987486
0	118	4.368456207285	0.001000207285
0	121	4.410554054029	0.001000054029
0	124	4.691549151926	0.001000151926
0	127	4.72397907623	0.00100007623
0	130	4.779025338939	0.001000338939
0	133	4.85422909928	0.00100009928
0	136	4.932798392441	0.001000392441
0	139	5.183270146628	0.001000146628
0	143	5.206274967151	0.000999967151
0	148	5.294497469905	0.001000469905
0	151	5.340407965076	0.000999965076
0	156	5.420178535649	0.000999535649
0	160	5.65609647017	0.00100047017
0	163	5.665485460799	0.001000460799
0	166	5.822197913587	0.000999913587
0	169	5.833778082323	0.001000082323
0	172	5.872976731088	0.000999731088
0	175	6.13287611266	0.00100011266
0	178	6.14918274642	0.00099974642
0	181	6.299186306703	0.001000306703
0	184	6.32156642347	0.00100042347
0	187	6.365559760363	0.000999760363
0	190	6.590584760926	0.000999760926
0	193	6.630408868147	0.000999868147
0	196	6.814201553863	0.000999553863
0	199	6.838172876695	0.000999876695
0	202	6.890597630803	0.000999630803
0	205	7.129923677396	0.000999677396
0	208	7.149749192083	0.001000192083
0	211	7.339349214313	0.001000214313
0	214	7.358617556001	0.000999556001
0	217	7.390781298185	0.001000298185
0	220	7.626350482807	0.001000482807
0	223	7.662144487281	0.001000487281
0	229	7.820179395656	0.001000395656
0	232	7.846192284114	0.001000284114
0	236	7.871036243484	0.001000243484
0	241	8.108079030944	0.001000030944
0	244	8.161875366326	0.001000366326
0	247	8.281072290543	0.001000290543
0	250	8.344495710427	0.000999710427
0	253	8.370585422123	0.001000422123
0	256	8.635158959473	0.000999959473
0	259	8.656635009448	0.001000009448
0	262	8.783020802726	0.000999802726
0	265	8.838181776669	0.000999776669
0	268	8.881874874605	0.000999874605
0	271	9.118697876085	0.000999876085
0	274	9.160313259321	0.001000259321
0	277	9.281110015185	0.001000015185
0	280	9.370815856544	0.000999856544
0	283	9.411647715441	0.000999715441
0	286	9.629003888739	0.000999888739
0	289	9.638583552791	0.000999552791
0	292	9.785616815788	0.000999815788
0	295	9.8641576807	0.0009996807
0	298	9.895924099021	0.001000099021
1	3	0.727851454936	0.001000454936
1	6	0.787139338743	0.001000338743
1	9	0.929470924962	0.000999924962
1	12	1.197469187271	0.001000187271
1	15	1.213955321418	0.001000321418
1	18	1.232982931448	0.000999931448
1	21	1.309054369618	0.001000369618
1	24	1.451417822017	0.000999822017
1	27	1.696581080532	0.001000080532
1	30	1.706265967478	0.000999967478

