version 3
run AttackOnNoSec20_record-0-20250912-21:40:14-7285
attr configname AttackOnNoSec20_record
attr datetime 20250912-21:40:14
attr datetimef 20250912-214014
attr experiment AttackOnNoSec20_record
attr inifile run_record.ini
attr iterationvars ""
attr iterationvarsd ""
attr iterationvarsf ""
attr measurement ""
attr network ned.LightIoTNetwork
attr processid 7285
attr repetition 0
attr replication #0
attr resultdir results
attr runnumber 0
attr seedset 123
config **.result-recording-modes all
config **.scalar-recording true
config **.vector-recording true
config output-scalar-file results/AttackOnNoSec20_record-0.sca
config output-vector-file results/AttackOnNoSec20_record-0.vec
config record-eventlog false
config network ned.LightIoTNetwork
config LightIoTNetwork.numSensorNodes 20
config **.sensor[*].mode "\"NoSecurity\""
config **.gateway.securityEnabled false
config **.gateway.procDelay 0s
config **.gateway.costVerify_mJ 0
config **.fakeNode.enabled true
config **.fakeNode.validMac false
config description "Secure Mode Simulation (includes all scenarios)"
config network ned.LightIoTNetwork
config ned-path .
config sim-time-limit 10s
config record-eventlog true
config cmdenv-express-mode false
config network ned.LightIoTNetwork
config sim-time-limit 10s
config output-scalar-file results/secure_output.sca
config output-vector-file results/secure_output.vec
config network LightIoTNetwork
config sim-time-limit 10s
config output-scalar-file results/nosecure_output.sca
config output-vector-file results/nosecure_output.vec
config network LightIoTNetwork
config sim-time-limit 10s
config output-scalar-file results/attack_output.sca
config output-vector-file results/attack_output.vec
config output-scalar-file results/AttackOnNoSec20_record-0.sca
config output-vector-file results/AttackOnNoSec20_record-0.vec
config **.scalar-recording true
config **.vector-recording true
config **.statistic-recording true
config **.result-recording-modes all
config rng-class cMersenneTwister
config num-rngs 1
config seed-set 123
config **.scalar-recording true
config **.vector-recording true
config **.result-recording-modes all
config output-scalar-file results/AttackOnNoSec20_record-0.sca
config output-vector-file results/AttackOnNoSec20_record-0.vec
config **.sensor[*].aesKeyHex "\"00112233445566778899AABBCCDDEEFF\""
config **.gateway.aesKeyHex "\"00112233445566778899AABBCCDDEEFF\""
config **.fakeNode.aesKeyHex "\"00112233445566778899AABBCCDDEEFF\""
config **.sensor[*].sendInterval 0.5s
config **.sensor[*].mode "\"Secure\""
config **.gateway.procDelay 1ms
config **.gateway.hmacWindow 1s
config **.gateway.costForward_mJ 5
config **.gateway.costVerify_mJ 5
config **.gateway.batteryInit_mJ 5000
config **.gateway.securityEnabled true
config **.gateway.checkHmac true
config **.gateway.checkFreshness true
config **.gateway.checkDuplicate true
config **.gateway.duplicateMethod "\"set\""
config **.gateway.bloomBits 16384
config **.gateway.bloomHashes 3
config **.gateway.sbfBits 16384
config **.gateway.sbfHashes 3
config **.gateway.sbfDecay 0.02
config **.fakeNode.enabled false
config **.fakeNode.attackMode 1
config **.fakeNode.replayInterval 2.5s
config **.fakeNode.validMac true
config **.fakeNode.replayId 100000
config **.fakeNode.replayTsUs 500000
config **.fakeNode.dupBurstLen 4
config **.fakeNode.dupBurstGap 200ms
config **.fakeNode.outOfOrderJitter 80ms
config sim-time-limit 10s

vector 0 LightIoTNetwork.cloud EndToEndDelay_s ETV
0	3	0.639950763201	-2.36799e-07
0	6	0.726851454936	4.54936e-07
0	9	0.786139338743	3.38743e-07
0	12	0.892117517302	-4.82698e-07
0	15	0.901017554104	-4.45896e-07
0	18	0.910924367839	3.67839e-07
0	21	0.923106460599	4.60599e-07
0	24	0.928470924962	-7.5038e-08
0	27	0.980931907427	-9.2573e-08
0	30	0.991118932609	-6.7391e-08
0	33	1.051314765122	-2.34878e-07
0	36	1.079694297398	2.97398e-07
0	39	1.184829734266	-2.65734e-07
0	42	1.190884851385	-1.48615e-07
0	45	1.196469187271	1.87271e-07
0	48	1.212955321418	3.21418e-07
0	51	1.219150308752	3.08752e-07
0	54	1.21946897055	-2.945e-08
0	57	1.280027760426	-2.39574e-07
0	60	1.480764200445	2.00445e-07
0	63	1.665414163982	1.63982e-07
0	66	1.75096951793	-4.8207e-07
0	69	1.772661396628	3.96628e-07
0	72	1.822859947476	-5.2524e-08
0	75	1.849969410058	4.10058e-07
0	78	1.879831966758	-3.3242e-08
0	81	1.908079775143	-2.24857e-07
0	84	1.962057495629	4.95629e-07
0	87	1.999712387007	3.87007e-07
0	90	2.016192643904	-3.56096e-07
0	93	2.038718013	1.3e-08
0	96	2.077673169179	1.69179e-07
0	99	2.113214484323	4.84323e-07
0	102	2.125975202583	2.02583e-07
0	105	2.172881169757	1.69757e-07
0	108	2.219265595451	-4.04549e-07
0	111	2.225834488263	4.88263e-07
0	114	2.26161634433	3.4433e-07
0	117	2.265600458347	4.58347e-07
0	120	2.343178014737	1.843178014737
0	123	2.507644392829	3.92829e-07
0	126	2.624970263615	2.63615e-07
0	129	2.771078351233	3.51233e-07
0	132	2.820855876757	-1.23243e-07
0	135	2.867751011764	1.1764e-08
0	138	2.879625559132	-4.40868e-07
0	141	2.898028687434	-3.12566e-07
0	144	2.902036669664	-3.30336e-07
0	147	2.980784425746	4.25746e-07
0	150	2.98315437641	3.7641e-07
0	153	3.006546172453	1.72453e-07
0	156	3.050030900771	-9.9229e-08
0	159	3.069662274933	2.74933e-07
0	162	3.071627849667	-1.50333e-07
0	165	3.08797477074	-2.2926e-07
0	168	3.119783744449	-2.55551e-07
0	171	3.178008403303	4.03303e-07
0	174	3.287811568332	-4.31668e-07
0	177	3.318799648388	-3.51612e-07
0	180	3.323433545185	-4.54815e-07
0	183	3.426065380126	3.80126e-07
0	186	3.68037115098	1.5098e-07
0	189	3.726452267636	2.67636e-07
0	192	3.757818585727	-4.14273e-07
0	195	3.814406862854	-1.37146e-07
0	198	3.832853118423	1.18423e-07
0	201	3.853923564264	-4.35736e-07
0	204	3.8967657072	-2.928e-07
0	207	3.898571672943	-3.27057e-07
0	210	3.965950484296	4.84296e-07
0	213	3.968998415908	4.15908e-07
0	216	4.05493253572	-4.6428e-07
0	219	4.121703590546	-4.09454e-07
0	222	4.128004040756	4.0756e-08
0	225	4.158464392321	3.92321e-07
0	228	4.166652603681	-3.96319e-07
0	231	4.266840407578	4.07578e-07
0	234	4.290164243569	2.43569e-07
0	237	4.316287156008	1.56008e-07
0	240	4.319166983152	-1.6848e-08
0	243	4.450855970522	-2.9478e-08
0	246	4.649575946946	-5.3054e-08
0	249	4.694057290582	2.90582e-07
0	252	4.718328476324	4.76324e-07
0	255	4.777863959129	-4.0871e-08
0	258	4.832314876513	-1.23487e-07
0	261	4.836888806568	-1.93432e-07
0	264	4.843178014737	4.343178014737
0	267	4.919089489151	4.89151e-07
0	270	4.93341828892	2.8892e-07
0	273	4.971833503666	-4.96334e-07
0	276	4.976718325495	3.25495e-07
0	279	5.049290219696	2.19696e-07
0	282	5.113219789975	-2.10025e-07
0	285	5.118310443172	4.43172e-07
0	288	5.127102398035	3.98035e-07
0	291	5.255576349329	3.49329e-07
0	294	5.270737431943	4.31943e-07
0	297	5.277536376053	3.76053e-07
0	300	5.338866060972	6.0972e-08
0	303	5.369475582848	-4.17152e-07
0	306	5.374981703795	-2.96205e-07
0	309	5.645754371863	3.71863e-07
0	312	5.759325450333	4.50333e-07
0	315	5.777874157996	1.57996e-07
0	318	5.788855463452	4.63452e-07
0	321	5.798475984436	-1.5564e-08
0	324	5.845902407774	4.07774e-07
0	327	5.873784973892	-2.6108e-08
0	330	5.901971056079	5.6079e-08
0	333	5.905773137463	1.37463e-07
0	336	5.93754248391	4.8391e-07
0	339	6.017449416734	4.16734e-07
0	342	6.096624231944	2.31944e-07
0	345	6.156164844474	-1.55526e-07
0	348	6.163362550038	-4.49962e-07
0	351	6.231097140628	1.40628e-07
0	354	6.329450206132	2.06132e-07
0	357	6.340950528951	-4.71049e-07
0	360	6.345828800415	-1.99585e-07
0	363	6.360825165548	1.65548e-07
0	366	6.408844460407	4.60407e-07
0	369	6.599410632625	-3.67375e-07
0	372	6.752578917237	-8.2763e-08
0	375	6.776512759738	-2.40262e-07
0	378	6.813836163608	1.63608e-07
0	381	6.840847669914	-3.30086e-07
0	384	6.84528471697	-2.8303e-07
0	387	6.854181482178	4.82178e-07
0	390	6.879797376274	3.76274e-07
0	393	6.880840218299	2.18299e-07
0	396	6.970439543621	-4.56379e-07
0	399	6.980442705426	-2.94574e-07
0	402	7.112095825841	-1.74159e-07
0	405	7.149360799184	-2.00816e-07
0	408	7.167164397239	3.97239e-07
0	411	7.234386664163	-3.35837e-07
0	414	7.26829479807	-2.0193e-07
0	417	7.303284786363	-2.13637e-07
0	420	7.327986963745	-3.6255e-08
0	423	7.339813769562	-2.30438e-07
0	426	7.343178014737	6.843178014737
0	429	7.360320192854	1.92854e-07
0	432	7.603586006397	6.397e-09
0	435	7.708532747906	-2.52094e-07
0	438	7.783023217601	2.17601e-07
0	441	7.829644282905	2.82905e-07
0	444	7.839285956788	-4.3212e-08
0	447	7.876249729934	-2.70066e-07
0	450	7.889967987266	-1.2734e-08
0	453	7.924659029953	2.9953e-08
0	456	7.94241940668	4.0668e-07
0	459	7.953039466171	4.66171e-07
0	462	7.989325919793	-8.0207e-08
0	465	8.098956326674	3.26674e-07
0	468	8.123452863937	-1.36063e-07
0	471	8.150801663101	-3.36899e-07
0	474	8.190545304306	3.04306e-07
0	477	8.198908900655	-9.9345e-08
0	480	8.261522229388	2.29388e-07
0	483	8.324073477973	4.77973e-07
0	486	8.356052125479	1.25479e-07
0	489	8.36709286971	-1.3029e-07
0	492	8.605916949641	-5.0359e-08
0	495	8.746926805657	-1.94343e-07
0	498	8.782961158966	1.58966e-07
0	501	8.840520933874	-6.6126e-08
0	504	8.854039845102	-1.54898e-07
0	507	8.862588799511	-2.00489e-07
0	510	8.864977096441	9.6441e-08
0	513	9.009685527999	-4.72001e-07
0	516	9.013413968917	-3.1083e-08
0	519	9.021373465844	4.65844e-07
0	522	9.031604279903	2.79903e-07
0	525	9.059519956447	-4.3553e-08
0	528	9.070435840729	-1.59271e-07
0	531	9.102041746072	-2.53928e-07
0	534	9.136805601511	-3.98489e-07
0	537	9.15986251533	-4.8467e-07
0	540	9.237557171797	1.71797e-07
0	543	9.303710614097	-3.85903e-07
0	546	9.365884545819	-4.54181e-07
0	549	9.408084635297	-3.64703e-07
0	552	9.617260761373	-2.38627e-07
0	555	9.683788087265	8.7265e-08
0	558	9.776506699995	-3.00005e-07
0	561	9.811703906672	-9.3328e-08
0	564	9.843178014737	9.343178014737
0	567	9.845998503175	-4.96825e-07
0	570	9.881644348845	3.48845e-07
0	573	9.915098362741	3.62741e-07
0	576	9.92201934946	3.4946e-07
0	579	9.989745446481	4.46481e-07

