version 3
run N20_Attack-0-20250912-21:40:15-7345
attr configname N20_Attack
attr datetime 20250912-21:40:15
attr datetimef 20250912-214015
attr experiment N20_Attack
attr inifile run_record.ini
attr iterationvars ""
attr iterationvarsd ""
attr iterationvarsf ""
attr measurement ""
attr network ned.LightIoTNetwork
attr processid 7345
attr repetition 0
attr replication #0
attr resultdir results
attr runnumber 0
attr seedset 123
config **.result-recording-modes all
config **.scalar-recording true
config **.vector-recording true
config output-scalar-file results/N20_Attack-0.sca
config output-vector-file results/N20_Attack-0.vec
config record-eventlog false
config extends Attack20_record
config network ned.LightIoTNetwork
config LightIoTNetwork.numSensorNodes 20
config **.sensor[*].mode "\"Secure\""
config **.fakeNode.enabled true
config **.fakeNode.validMac true
config **.gateway.securityEnabled true
config **.gateway.hmacWindow 1s
config description "Secure Mode Simulation (includes all scenarios)"
config network ned.LightIoTNetwork
config ned-path .
config sim-time-limit 10s
config record-eventlog true
config cmdenv-express-mode false
config network ned.LightIoTNetwork
config sim-time-limit 10s
config output-scalar-file results/secure_output.sca
config output-vector-file results/secure_output.vec
config network LightIoTNetwork
config sim-time-limit 10s
config output-scalar-file results/nosecure_output.sca
config output-vector-file results/nosecure_output.vec
config network LightIoTNetwork
config sim-time-limit 10s
config output-scalar-file results/attack_output.sca
config output-vector-file results/attack_output.vec
config output-scalar-file results/N20_Attack-0.sca
config output-vector-file results/N20_Attack-0.vec
config **.scalar-recording true
config **.vector-recording true
config **.statistic-recording true
config **.result-recording-modes all
config rng-class cMersenneTwister
config num-rngs 1
config seed-set 123
config **.scalar-recording true
config **.vector-recording true
config **.result-recording-modes all
config output-scalar-file results/N20_Attack-0.sca
config output-vector-file results/N20_Attack-0.vec
config **.sensor[*].aesKeyHex "\"00112233445566778899AABBCCDDEEFF\""
config **.gateway.aesKeyHex "\"00112233445566778899AABBCCDDEEFF\""
config **.fakeNode.aesKeyHex "\"00112233445566778899AABBCCDDEEFF\""
config **.sensor[*].sendInterval 0.5s
config **.sensor[*].mode "\"Secure\""
config **.gateway.procDelay 1ms
config **.gateway.hmacWindow 1s
config **.gateway.costForward_mJ 5
config **.gateway.costVerify_mJ 5
config **.gateway.batteryInit_mJ 5000
config **.gateway.securityEnabled true
config **.gateway.checkHmac true
config **.gateway.checkFreshness true
config **.gateway.checkDuplicate true
config **.gateway.duplicateMethod "\"set\""
config **.gateway.bloomBits 16384
config **.gateway.bloomHashes 3
config **.gateway.sbfBits 16384
config **.gateway.sbfHashes 3
config **.gateway.sbfDecay 0.02
config **.fakeNode.enabled false
config **.fakeNode.attackMode 1
config **.fakeNode.replayInterval 2.5s
config **.fakeNode.validMac true
config **.fakeNode.replayId 100000
config **.fakeNode.replayTsUs 500000
config **.fakeNode.dupBurstLen 4
config **.fakeNode.dupBurstGap 200ms
config **.fakeNode.outOfOrderJitter 80ms
config sim-time-limit 10s

vector 0 LightIoTNetwork.cloud EndToEndDelay_s ETV
0	3	0.640950763201	0.000999763201
0	6	0.727851454936	0.001000454936
0	9	0.787139338743	0.001000338743
0	12	0.893117517302	0.000999517302
0	15	0.902017554104	0.000999554104
0	18	0.911924367839	0.001000367839
0	21	0.924106460599	0.001000460599
0	24	0.929470924962	0.000999924962
0	27	0.981931907427	0.000999907427
0	30	0.992118932609	0.000999932609
0	33	1.052314765122	0.000999765122
0	36	1.080694297398	0.001000297398
0	39	1.185829734266	0.000999734266
0	42	1.191884851385	0.000999851385
0	45	1.197469187271	0.001000187271
0	48	1.213955321418	0.001000321418
0	53	1.220150308752	0.001000308752
0	54	1.22046897055	0.00099997055
0	57	1.281027760426	0.000999760426
0	60	1.481764200445	0.001000200445
0	63	1.666414163982	0.001000163982
0	66	1.75196951793	0.00099951793
0	69	1.773661396628	0.001000396628
0	72	1.823859947476	0.000999947476
0	75	1.850969410058	0.001000410058
0	78	1.880831966758	0.000999966758
0	81	1.909079775143	0.000999775143
0	84	1.963057495629	0.001000495629
0	87	2.000712387007	0.001000387007
0	90	2.017192643904	0.000999643904
0	93	2.039718013	0.001000013
0	96	2.078673169179	0.001000169179
0	99	2.114214484323	0.001000484323
0	102	2.126975202583	0.001000202583
0	105	2.173881169757	0.001000169757
0	108	2.220265595451	0.000999595451
0	111	2.226834488263	0.001000488263
0	114	2.26261634433	0.00100034433
0	117	2.266600458347	0.001000458347
0	122	2.508644392829	0.001000392829
0	125	2.625970263615	0.001000263615
0	128	2.772078351233	0.001000351233
0	131	2.821855876757	0.000999876757
0	134	2.868751011764	0.001000011764
0	137	2.880625559132	0.000999559132
0	140	2.899028687434	0.000999687434
0	143	2.903036669664	0.000999669664
0	146	2.981784425746	0.001000425746
0	149	2.98415437641	0.00100037641
0	152	3.007546172453	0.001000172453
0	155	3.051030900771	0.000999900771
0	158	3.070662274933	0.001000274933
0	161	3.072627849667	0.000999849667
0	164	3.08897477074	0.00099977074
0	167	3.120783744449	0.000999744449
0	170	3.179008403303	0.001000403303
0	173	3.288811568332	0.000999568332
0	176	3.319799648388	0.000999648388
0	179	3.324433545185	0.000999545185
0	182	3.427065380126	0.001000380126
0	185	3.68137115098	0.00100015098
0	188	3.727452267636	0.001000267636
0	191	3.758818585727	0.000999585727
0	194	3.815406862854	0.000999862854
0	197	3.833853118423	0.001000118423
0	200	3.854923564264	0.000999564264
0	203	3.8977657072	0.0009997072
0	206	3.899571672943	0.000999672943
0	209	3.966950484296	0.001000484296
0	212	3.969998415908	0.001000415908
0	215	4.05593253572	0.00099953572
0	218	4.122703590546	0.000999590546
0	221	4.129004040756	0.001000040756
0	224	4.159464392321	0.001000392321
0	227	4.167652603681	0.000999603681
0	230	4.267840407578	0.001000407578
0	233	4.291164243569	0.001000243569
0	236	4.317287156008	0.001000156008
0	239	4.320166983152	0.000999983152
0	242	4.451855970522	0.000999970522
0	245	4.650575946946	0.000999946946
0	248	4.695057290582	0.001000290582
0	251	4.719328476324	0.001000476324
0	254	4.778863959129	0.000999959129
0	257	4.833314876513	0.000999876513
0	260	4.837888806568	0.000999806568
0	265	4.920089489151	0.001000489151
0	268	4.93441828892	0.00100028892
0	271	4.972833503666	0.000999503666
0	274	4.977718325495	0.001000325495
0	277	5.050290219696	0.001000219696
0	280	5.114219789975	0.000999789975
0	283	5.119310443172	0.001000443172
0	286	5.128102398035	0.001000398035
0	289	5.256576349329	0.001000349329
0	292	5.271737431943	0.001000431943
0	295	5.278536376053	0.001000376053
0	298	5.339866060972	0.001000060972
0	301	5.370475582848	0.000999582848
0	304	5.375981703795	0.000999703795
0	307	5.646754371863	0.001000371863
0	310	5.760325450333	0.001000450333
0	313	5.778874157996	0.001000157996
0	316	5.789855463452	0.001000463452
0	319	5.799475984436	0.000999984436
0	322	5.846902407774	0.001000407774
0	325	5.874784973892	0.000999973892
0	328	5.902971056079	0.001000056079
0	331	5.906773137463	0.001000137463
0	334	5.93854248391	0.00100048391
0	337	6.018449416734	0.001000416734
0	340	6.097624231944	0.001000231944
0	343	6.157164844474	0.000999844474
0	346	6.164362550038	0.000999550038
0	349	6.232097140628	0.001000140628
0	352	6.330450206132	0.001000206132
0	355	6.341950528951	0.000999528951
0	358	6.346828800415	0.000999800415
0	361	6.361825165548	0.001000165548
0	364	6.409844460407	0.001000460407
0	367	6.600410632625	0.000999632625
0	370	6.753578917237	0.000999917237
0	373	6.777512759738	0.000999759738
0	376	6.814836163608	0.001000163608
0	379	6.841847669914	0.000999669914
0	382	6.84628471697	0.00099971697
0	385	6.855181482178	0.001000482178
0	388	6.880797376274	0.001000376274
0	391	6.881840218299	0.001000218299
0	394	6.971439543621	0.000999543621
0	397	6.981442705426	0.000999705426
0	400	7.113095825841	0.000999825841
0	403	7.150360799184	0.000999799184
0	406	7.168164397239	0.001000397239
0	409	7.235386664163	0.000999664163
0	412	7.26929479807	0.00099979807
0	415	7.304284786363	0.000999786363
0	418	7.328986963745	0.000999963745
0	421	7.340813769562	0.000999769562
0	426	7.361320192854	0.001000192854
0	429	7.604586006397	0.001000006397
0	432	7.709532747906	0.000999747906
0	435	7.784023217601	0.001000217601
0	438	7.830644282905	0.001000282905
0	441	7.840285956788	0.000999956788
0	444	7.877249729934	0.000999729934
0	447	7.890967987266	0.000999987266
0	450	7.925659029953	0.001000029953
0	453	7.94341940668	0.00100040668
0	456	7.954039466171	0.001000466171
0	459	7.990325919793	0.000999919793
0	462	8.099956326674	0.001000326674
0	465	8.124452863937	0.000999863937
0	468	8.151801663101	0.000999663101
0	471	8.191545304306	0.001000304306
0	474	8.199908900655	0.000999900655
0	477	8.262522229388	0.001000229388
0	480	8.325073477973	0.001000477973
0	483	8.357052125479	0.001000125479
0	486	8.36809286971	0.00099986971
0	489	8.606916949641	0.000999949641
0	492	8.747926805657	0.000999805657
0	495	8.783961158966	0.001000158966
0	498	8.841520933874	0.000999933874
0	501	8.855039845102	0.000999845102
0	504	8.863588799511	0.000999799511
0	507	8.865977096441	0.001000096441
0	510	9.010685527999	0.000999527999
0	513	9.014413968917	0.000999968917
0	516	9.022373465844	0.001000465844
0	519	9.032604279903	0.001000279903
0	522	9.060519956447	0.000999956447
0	525	9.071435840729	0.000999840729
0	528	9.103041746072	0.000999746072
0	531	9.137805601511	0.000999601511
0	534	9.16086251533	0.00099951533
0	537	9.238557171797	0.001000171797
0	540	9.304710614097	0.000999614097
0	543	9.366884545819	0.000999545819
0	546	9.409084635297	0.000999635297
0	549	9.618260761373	0.000999761373
0	552	9.684788087265	0.001000087265
0	555	9.777506699995	0.000999699995
0	558	9.812703906672	0.000999906672
0	563	9.846998503175	0.000999503175
0	566	9.882644348845	0.001000348845
0	569	9.916098362741	0.001000362741
0	572	9.92301934946	0.00100034946
0	575	9.990745446481	0.001000446481

