file 20613 1757700615                                           
version 3
run N50_Attack_W_sweep-0-20250912-21:40:15-7311
attr configname N50_Attack_W_sweep
attr datetime 20250912-21:40:15
attr datetimef 20250912-214015
attr experiment N50_Attack_W_sweep
attr inifile run_record.ini
attr iterationvars $W=0.5s
attr iterationvarsd W=0.5s
attr iterationvarsf W=0.5s-
attr measurement $W=0.5s
attr network ned.LightIoTNetwork
attr processid 7311
attr repetition 0
attr replication #0
attr resultdir results
attr runnumber 0
attr seedset 123
itervar W 0.5s
config **.result-recording-modes all
config **.scalar-recording true
config **.vector-recording true
config output-scalar-file results/N50_Attack_W_sweep-0.sca
config output-vector-file results/N50_Attack_W_sweep-0.vec
config record-eventlog false
config extends Attack50_record
config repeat 4
config **.gateway.hmacWindow 0.5s
config network ned.LightIoTNetwork
config LightIoTNetwork.numSensorNodes 50
config **.sensor[*].mode "\"Secure\""
config **.fakeNode.enabled true
config **.fakeNode.validMac true
config **.gateway.securityEnabled true
config **.gateway.hmacWindow 3s
config description "Secure Mode Simulation (includes all scenarios)"
config network ned.LightIoTNetwork
config ned-path .
config sim-time-limit 10s
config record-eventlog true
config cmdenv-express-mode false
config network ned.LightIoTNetwork
config sim-time-limit 10s
config output-scalar-file results/secure_output.sca
config output-vector-file results/secure_output.vec
config network LightIoTNetwork
config sim-time-limit 10s
config output-scalar-file results/nosecure_output.sca
config output-vector-file results/nosecure_output.vec
config network LightIoTNetwork
config sim-time-limit 10s
config output-scalar-file results/attack_output.sca
config output-vector-file results/attack_output.vec
config output-scalar-file results/N50_Attack_W_sweep-0.sca
config output-vector-file results/N50_Attack_W_sweep-0.vec
config **.scalar-recording true
config **.vector-recording true
config **.statistic-recording true
config **.result-recording-modes all
config rng-class cMersenneTwister
config num-rngs 1
config seed-set 123
config **.scalar-recording true
config **.vector-recording true
config **.result-recording-modes all
config output-scalar-file results/N50_Attack_W_sweep-0.sca
config output-vector-file results/N50_Attack_W_sweep-0.vec
config **.sensor[*].aesKeyHex "\"00112233445566778899AABBCCDDEEFF\""
config **.gateway.aesKeyHex "\"00112233445566778899AABBCCDDEEFF\""
config **.fakeNode.aesKeyHex "\"00112233445566778899AABBCCDDEEFF\""
config **.sensor[*].sendInterval 0.5s
config **.sensor[*].mode "\"Secure\""
config **.gateway.procDelay 1ms
config **.gateway.hmacWindow 1s
config **.gateway.costForward_mJ 5
config **.gateway.costVerify_mJ 5
config **.gateway.batteryInit_mJ 5000
config **.gateway.securityEnabled true
config **.gateway.checkHmac true
config **.gateway.checkFreshness true
config **.gateway.checkDuplicate true
config **.gateway.duplicateMethod "\"set\""
config **.gateway.bloomBits 16384
config **.gateway.bloomHashes 3
config **.gateway.sbfBits 16384
config **.gateway.sbfHashes 3
config **.gateway.sbfDecay 0.02
config **.fakeNode.enabled false
config **.fakeNode.attackMode 1
config **.fakeNode.replayInterval 2.5s
config **.fakeNode.validMac true
config **.fakeNode.replayId 100000
config **.fakeNode.replayTsUs 500000
config **.fakeNode.dupBurstLen 4
config **.fakeNode.dupBurstGap 200ms
config **.fakeNode.outOfOrderJitter 80ms
config sim-time-limit 10s

vector 0 LightIoTNetwork.cloud EndToEndDelay_s ETV
0	3514 17098 3 1433 0.560677898185 9.993869400001 475 0.000999501954 0.001000498164 0.475004663283 0.00047500936778906

