version 3
run Attack5_record-0-20250829-00:22:27-35785
attr configname Attack5_record
attr datetime 20250829-00:22:27
attr datetimef 20250829-002227
attr experiment Attack5_record
attr inifile run_record.ini
attr iterationvars ""
attr iterationvarsd ""
attr iterationvarsf ""
attr measurement ""
attr network ned.LightIoTNetwork
attr processid 35785
attr repetition 0
attr replication #0
attr resultdir results
attr runnumber 0
attr seedset 123
config output-scalar-file results/Attack5_record-NEW.sca
config output-vector-file results/Attack5_record-NEW.vec
config network ned.LightIoTNetwork
config output-scalar-file results/Attack5_record-0.sca
config output-vector-file results/Attack5_record-0.vec
config **.scalar-recording true
config **.vector-recording true
config **.result-recording-modes all
config LightIoTNetwork.numSensorNodes 5
config **.fakeNode.enabled true
config **.fakeNode.attackMode 1
config **.fakeNode.replayInterval 2.5s
config **.gateway.securityEnabled true
config **.gateway.hmacWindow 1s
config **.gateway.procDelay 1ms
config **.gateway.costForward_mJ 5
config **.gateway.costVerify_mJ 5
config **.gateway.batteryInit_mJ 5000
config sim-time-limit 10s
config description "Secure Mode Simulation (includes all scenarios)"
config network ned.LightIoTNetwork
config ned-path .
config sim-time-limit 10s
config record-eventlog true
config cmdenv-express-mode false
config network ned.LightIoTNetwork
config sim-time-limit 10s
config output-scalar-file results/secure_output.sca
config output-vector-file results/secure_output.vec
config network LightIoTNetwork
config sim-time-limit 10s
config output-scalar-file results/nosecure_output.sca
config output-vector-file results/nosecure_output.vec
config network LightIoTNetwork
config sim-time-limit 10s
config output-scalar-file results/attack_output.sca
config output-vector-file results/attack_output.vec
config output-scalar-file results/Attack5_record-0.sca
config output-vector-file results/Attack5_record-0.vec
config **.scalar-recording true
config **.vector-recording true
config **.statistic-recording true
config **.result-recording-modes all
config rng-class cMersenneTwister
config num-rngs 1
config seed-set 123

par LightIoTNetwork.sensor[0] typename "\"ned.SensorNode\""
par LightIoTNetwork.sensor[0] sendInterval 0.5s
attr unit s
par LightIoTNetwork.sensor[0] mode "\"Secure\""
par LightIoTNetwork.sensor[0] aesKeyHex "\"00112233445566778899AABBCCDDEEFF\""
scalar LightIoTNetwork.sensor[0] Sensor_EnergyRemaining_mJ 4820
par LightIoTNetwork.sensor[1] typename "\"ned.SensorNode\""
par LightIoTNetwork.sensor[1] sendInterval 0.5s
attr unit s
par LightIoTNetwork.sensor[1] mode "\"Secure\""
par LightIoTNetwork.sensor[1] aesKeyHex "\"00112233445566778899AABBCCDDEEFF\""
scalar LightIoTNetwork.sensor[1] Sensor_EnergyRemaining_mJ 4820
par LightIoTNetwork.sensor[2] typename "\"ned.SensorNode\""
par LightIoTNetwork.sensor[2] sendInterval 0.5s
attr unit s
par LightIoTNetwork.sensor[2] mode "\"Secure\""
par LightIoTNetwork.sensor[2] aesKeyHex "\"00112233445566778899AABBCCDDEEFF\""
scalar LightIoTNetwork.sensor[2] Sensor_EnergyRemaining_mJ 4800
par LightIoTNetwork.sensor[3] typename "\"ned.SensorNode\""
par LightIoTNetwork.sensor[3] sendInterval 0.5s
attr unit s
par LightIoTNetwork.sensor[3] mode "\"Secure\""
par LightIoTNetwork.sensor[3] aesKeyHex "\"00112233445566778899AABBCCDDEEFF\""
scalar LightIoTNetwork.sensor[3] Sensor_EnergyRemaining_mJ 4800
par LightIoTNetwork.sensor[4] typename "\"ned.SensorNode\""
par LightIoTNetwork.sensor[4] sendInterval 0.5s
attr unit s
par LightIoTNetwork.sensor[4] mode "\"Secure\""
par LightIoTNetwork.sensor[4] aesKeyHex "\"00112233445566778899AABBCCDDEEFF\""
scalar LightIoTNetwork.sensor[4] Sensor_EnergyRemaining_mJ 4800
par LightIoTNetwork.gateway typename "\"ned.GatewayNode\""
par LightIoTNetwork.gateway aesKeyHex "\"00112233445566778899AABBCCDDEEFF\""
par LightIoTNetwork.gateway securityEnabled true
par LightIoTNetwork.gateway checkHmac true
par LightIoTNetwork.gateway checkFreshness true
par LightIoTNetwork.gateway checkDuplicate true
par LightIoTNetwork.gateway duplicateMethod "\"set\""
par LightIoTNetwork.gateway bloomBits 16384
par LightIoTNetwork.gateway bloomHashes 3
par LightIoTNetwork.gateway costForward_mJ 5
par LightIoTNetwork.gateway costVerify_mJ 5
par LightIoTNetwork.gateway batteryInit_mJ 5000
par LightIoTNetwork.gateway procDelay 0.001s
attr unit s
par LightIoTNetwork.gateway hmacWindow 1s
attr unit s
scalar LightIoTNetwork.gateway GW_Received 51
scalar LightIoTNetwork.gateway GW_Forwarded 48
scalar LightIoTNetwork.gateway GW_Dropped 3
scalar LightIoTNetwork.gateway GW_Dropped_HMAC 3
scalar LightIoTNetwork.gateway GW_Dropped_Stale 3
scalar LightIoTNetwork.gateway GW_Dropped_Duplicate 3
scalar LightIoTNetwork.gateway GW_BatteryRemaining_mJ 4505
par LightIoTNetwork.cloud typename "\"ned.CloudServer\""
scalar LightIoTNetwork.cloud Cloud_TotalReceived 48
scalar LightIoTNetwork.cloud Cloud_AvgDelay_s 0.0010000394555833
par LightIoTNetwork.fakeNode typename "\"ned.FakeNode\""
par LightIoTNetwork.fakeNode enabled true
par LightIoTNetwork.fakeNode replayInterval 2.5s
attr unit s
par LightIoTNetwork.fakeNode attackMode 1
par LightIoTNetwork.fakeNode replayId 100000
par LightIoTNetwork.fakeNode replayTsUs 500000
par LightIoTNetwork.fakeNode replayTagHex "\"00000000000000000000000000000000\""
scalar LightIoTNetwork.fakeNode Fake_AttacksSent 3
par LightIoTNetwork typename "\"ned.LightIoTNetwork\""
par LightIoTNetwork numSensorNodes 5

